CHEMBL567313
     RDKit          3D

 53 56  0  0  0  0  0  0  0  0999 V2000
  108.2357   68.1694   44.4939 C   0  0  0  0  0  0  0  0  0  0  0  0
  107.1514   67.8492   43.6893 C   0  0  0  0  0  0  0  0  0  0  0  0
  109.5186   67.7299   44.1567 C   0  0  0  0  0  0  0  0  0  0  0  0
  107.3242   67.0853   42.5335 C   0  0  0  0  0  0  0  0  0  0  0  0
  109.5018   66.7565   34.3992 C   0  0  0  0  0  0  0  0  0  0  0  0
  111.1271   65.6287   33.0807 C   0  0  0  0  0  0  0  0  0  0  0  0
  109.7268   66.9535   42.9911 C   0  0  0  0  0  0  0  0  0  0  0  0
  110.5590   65.8597   34.3171 C   0  0  0  0  0  0  0  0  0  0  0  0
  110.9306   66.3948   42.4443 C   0  0  0  0  0  0  0  0  0  0  0  0
  109.0221   67.4179   33.2569 C   0  0  0  0  0  0  0  0  0  0  0  0
  108.6188   66.6438   42.1964 C   0  0  0  0  0  0  0  0  0  0  0  0
  110.7152   65.6944   41.2812 C   0  0  0  0  0  0  0  0  0  0  0  0
  109.6760   67.1801   32.0290 C   0  0  0  0  0  0  0  0  0  0  0  0
  111.0452   65.1668   35.4967 C   0  0  0  0  0  0  0  0  0  0  0  0
  110.8382   65.5586   36.7759 C   0  0  0  0  0  0  0  0  0  0  0  0
  111.4200   64.7760   37.9060 C   0  0  0  0  0  0  0  0  0  0  0  0
  107.4280   69.2897   31.1988 C   0  0  0  0  0  0  0  0  0  0  0  0
  106.9474   68.3380   32.2866 C   0  0  0  0  0  0  0  0  0  0  0  0
  108.9107   69.1998   30.8608 C   0  0  0  0  0  0  0  0  0  0  0  0
  112.2695   66.5554   43.0681 C   0  0  0  0  0  0  0  0  0  0  0  0
  112.1031   66.9080   38.9377 C   0  0  0  0  0  0  0  0  0  0  0  0
  111.7100   64.9725   40.4191 C   0  0  0  0  0  0  0  0  0  0  0  0
  110.6779   66.2779   32.0016 N   0  0  0  0  0  4  0  0  0  0  0  0
  107.8903   68.2198   33.3813 N   0  0  0  0  0  0  0  0  0  0  0  0
  109.3986   67.8339   30.8422 N   0  0  0  0  0  0  0  0  0  0  0  0
  111.7394   65.5020   39.0570 N   0  0  0  0  0  0  0  0  0  0  0  0
  111.6129   63.5662   37.7771 O   0  0  0  0  0  0  0  0  0  0  0  0
  109.0719   65.6963   40.8288 S   0  0  0  0  0  0  0  0  0  0  0  0
  108.0846   68.7721   45.4016 H   0  0  0  0  0  0  0  0  0  0  0  0
  106.1461   68.2006   43.9648 H   0  0  0  0  0  0  0  0  0  0  0  0
  110.3720   67.9887   44.8008 H   0  0  0  0  0  0  0  0  0  0  0  0
  106.4637   66.8324   41.8966 H   0  0  0  0  0  0  0  0  0  0  0  0
  109.0326   66.9520   35.3747 H   0  0  0  0  0  0  0  0  0  0  0  0
  111.9523   64.9080   32.9827 H   0  0  0  0  0  0  0  0  0  0  0  0
  111.6295   64.2484   35.3380 H   0  0  0  0  0  0  0  0  0  0  0  0
  110.2388   66.4573   36.9833 H   0  0  0  0  0  0  0  0  0  0  0  0
  106.8575   69.0746   30.2832 H   0  0  0  0  0  0  0  0  0  0  0  0
  107.2674   70.3047   31.5912 H   0  0  0  0  0  0  0  0  0  0  0  0
  105.9917   68.7108   32.6837 H   0  0  0  0  0  0  0  0  0  0  0  0
  106.8377   67.3420   31.8328 H   0  0  0  0  0  0  0  0  0  0  0  0
  109.0730   69.6451   29.8681 H   0  0  0  0  0  0  0  0  0  0  0  0
  109.4634   69.7395   31.6439 H   0  0  0  0  0  0  0  0  0  0  0  0
  112.1676   66.5432   44.1633 H   0  0  0  0  0  0  0  0  0  0  0  0
  112.9230   65.7292   42.7514 H   0  0  0  0  0  0  0  0  0  0  0  0
  112.7091   67.5127   42.7514 H   0  0  0  0  0  0  0  0  0  0  0  0
  112.2159   67.3440   39.9413 H   0  0  0  0  0  0  0  0  0  0  0  0
  113.0535   66.9958   38.3909 H   0  0  0  0  0  0  0  0  0  0  0  0
  111.3145   67.4456   38.3909 H   0  0  0  0  0  0  0  0  0  0  0  0
  112.7102   65.0807   40.8640 H   0  0  0  0  0  0  0  0  0  0  0  0
  111.4105   63.9154   40.3666 H   0  0  0  0  0  0  0  0  0  0  0  0
  111.1238   66.0769   31.0951 H   0  0  0  0  0  0  0  0  0  0  0  0
  107.7218   68.7331   34.2583 H   0  0  0  0  0  0  0  0  0  0  0  0
  109.5387   67.3501   29.9437 H   0  0  0  0  0  0  0  0  0  0  0  0
  1  2  2  0
  1  3  1  0
  2  4  1  0
  3  7  2  0
  4 11  2  0
  5  8  2  0
  5 10  1  0
  6  8  1  0
  6 23  2  0
  7  9  1  0
  7 11  1  0
  8 14  1  0
  9 12  2  0
  9 20  1  0
 10 13  2  0
 10 24  1  0
 11 28  1  0
 12 22  1  0
 12 28  1  0
 13 23  1  0
 13 25  1  0
 14 15  2  0
 15 16  1  0
 16 26  1  0
 16 27  2  0
 17 18  1  0
 17 19  1  0
 18 24  1  0
 19 25  1  0
 21 26  1  0
 22 26  1  0
  1 29  1  0
  2 30  1  0
  3 31  1  0
  4 32  1  0
  5 33  1  0
  6 34  1  0
 14 35  1  0
 15 36  1  0
 17 37  1  0
 17 38  1  0
 18 39  1  0
 18 40  1  0
 19 41  1  0
 19 42  1  0
 20 43  1  0
 20 44  1  0
 20 45  1  0
 21 46  1  0
 21 47  1  0
 21 48  1  0
 22 49  1  0
 22 50  1  0
 23 51  1  0
 24 52  1  0
 25 53  1  0
M  CHG  1  23   1
M  END
>  <s_m_entry_id>  (1) 
21965

>  <s_m_Source_Path>  (1) 
C:\Users\vinicius\Downloads\Ligands_Ecoli

>  <s_m_Source_File>  (1) 
Ligands_Ecoli_o.sdf

>  <i_m_Source_File_Index>  (1) 
83

>  <i_f3d_flags>  (1) 
0

>  <r_epik_Ionization_Penalty>  (1) 
  0.7020

>  <r_epik_State_Penalty>  (1) 
  0.7248

>  <i_epik_Tot_Q>  (1) 
1

>  <s_m_job_name>  (1) 
ligs_ecFabI_ligprep_2

>  <class_value>  (1) 
1

>  <FRED Chemgauss4 score>  (1) 
-14.769892

>  <Name>  (1) 
CHEMBL567313

>  <Set>  (1) 
training

>  <HBA count>  (1) 
4

>  <HBD count>  (1) 
2

>  <ExactMolWt>  (1) 
393.1743588400908

>  <NumRotatableBounds>  (1) 
6

>  <FractionCsp3>  (1) 
0.2727272727272727

>  <TPSA>  (1) 
58.510000000000005

>  <LogP_WildmanCrippen>  (1) 
3.9231200000000026

>  <General_Cluster>  (1) 
1

>  <Biological_Cluster>  (1) 
1

>  <Physicochemical_Cluster>  (1) 
3

>  <Structural_Cluster>  (1) 
7

$$$$
CHEMBL2178322
     RDKit          3D

 36 38  0  0  0  0  0  0  0  0999 V2000
  110.3532   63.6975   40.0407 C   0  0  0  0  0  0  0  0  0  0  0  0
  108.9878   68.3829   33.3068 C   0  0  0  0  0  0  0  0  0  0  0  0
  109.2861   66.6059   31.6973 C   0  0  0  0  0  0  0  0  0  0  0  0
  109.8228   66.4688   35.3322 C   0  0  0  0  0  0  0  0  0  0  0  0
  108.3290   69.1456   32.3425 C   0  0  0  0  0  0  0  0  0  0  0  0
  108.6272   67.3687   30.7330 C   0  0  0  0  0  0  0  0  0  0  0  0
  110.4815   65.7065   36.2968 C   0  0  0  0  0  0  0  0  0  0  0  0
  110.7096   63.4822   38.7141 C   0  0  0  0  0  0  0  0  0  0  0  0
  111.0208   64.6629   40.7862 C   0  0  0  0  0  0  0  0  0  0  0  0
  111.1358   65.4128   33.6009 C   0  0  0  0  0  0  0  0  0  0  0  0
  109.4664   67.1130   32.9841 C   0  0  0  0  0  0  0  0  0  0  0  0
  110.1499   66.3220   33.9842 C   0  0  0  0  0  0  0  0  0  0  0  0
  108.1487   68.6385   31.0557 C   0  0  0  0  0  0  0  0  0  0  0  0
  111.4674   64.7972   35.9135 C   0  0  0  0  0  0  0  0  0  0  0  0
  111.7946   64.6504   34.5655 C   0  0  0  0  0  0  0  0  0  0  0  0
  111.7321   64.2524   38.1840 C   0  0  0  0  0  0  0  0  0  0  0  0
  112.0295   65.3801   40.1634 C   0  0  0  0  0  0  0  0  0  0  0  0
  107.4445   69.4542   30.0247 C   0  0  0  0  0  0  0  0  0  0  0  0
  112.4036   65.1992   38.8769 N   0  0  0  0  0  0  0  0  0  0  0  0
  112.7552   63.7656   34.1783 O   0  0  0  0  0  0  0  0  0  0  0  0
  112.1040   64.0585   36.8649 O   0  0  0  0  0  0  0  0  0  0  0  0
  112.6810   66.3161   40.8709 F   0  0  0  0  0  0  0  0  0  0  0  0
  109.5463   63.1065   40.4986 H   0  0  0  0  0  0  0  0  0  0  0  0
  109.1299   68.7828   34.3216 H   0  0  0  0  0  0  0  0  0  0  0  0
  109.6635   65.6045   31.4429 H   0  0  0  0  0  0  0  0  0  0  0  0
  109.0453   67.1858   35.6345 H   0  0  0  0  0  0  0  0  0  0  0  0
  107.9516   70.1470   32.5969 H   0  0  0  0  0  0  0  0  0  0  0  0
  108.4850   66.9688   29.7182 H   0  0  0  0  0  0  0  0  0  0  0  0
  110.2235   65.8224   37.3598 H   0  0  0  0  0  0  0  0  0  0  0  0
  110.1959   62.7242   38.1046 H   0  0  0  0  0  0  0  0  0  0  0  0
  110.7565   64.8513   41.8372 H   0  0  0  0  0  0  0  0  0  0  0  0
  111.3938   65.2970   32.5379 H   0  0  0  0  0  0  0  0  0  0  0  0
  106.8029   70.1974   30.5206 H   0  0  0  0  0  0  0  0  0  0  0  0
  108.1855   69.9703   29.3965 H   0  0  0  0  0  0  0  0  0  0  0  0
  106.8258   68.7965   29.3965 H   0  0  0  0  0  0  0  0  0  0  0  0
  113.2280   63.2203   34.8559 H   0  0  0  0  0  0  0  0  0  0  0  0
  1  8  2  0
  1  9  1  0
  2  5  2  0
  2 11  1  0
  3  6  1  0
  3 11  2  0
  4  7  2  0
  4 12  1  0
  5 13  1  0
  6 13  2  0
  7 14  1  0
  8 16  1  0
  9 17  2  0
 10 12  2  0
 10 15  1  0
 11 12  1  0
 13 18  1  0
 14 15  2  0
 14 21  1  0
 15 20  1  0
 16 19  2  0
 16 21  1  0
 17 19  1  0
 17 22  1  0
  1 23  1  0
  2 24  1  0
  3 25  1  0
  4 26  1  0
  5 27  1  0
  6 28  1  0
  7 29  1  0
  8 30  1  0
  9 31  1  0
 10 32  1  0
 18 33  1  0
 18 34  1  0
 18 35  1  0
 20 36  1  0
M  END
>  <s_m_entry_id>  (2) 
22028

>  <s_m_Source_Path>  (2) 
C:\Users\vinicius\Downloads\Ligands_Ecoli

>  <s_m_Source_File>  (2) 
Ligands_Ecoli_o.sdf

>  <i_m_Source_File_Index>  (2) 
116

>  <i_f3d_flags>  (2) 
0

>  <r_lp_tautomer_probability>  (2) 
1

>  <r_epik_Ionization_Penalty>  (2) 
  0.0030

>  <r_epik_State_Penalty>  (2) 
  0.0021

>  <i_epik_Tot_Q>  (2) 
0

>  <s_m_job_name>  (2) 
ligs_ecFabI_ligprep_2

>  <class_value>  (2) 
0

>  <FRED Chemgauss4 score>  (2) 
-15.481231

>  <Name>  (2) 
CHEMBL2178322

>  <Set>  (2) 
training

>  <HBA count>  (2) 
3

>  <HBD count>  (2) 
1

>  <ExactMolWt>  (2) 
295.10085690800037

>  <NumRotatableBounds>  (2) 
5

>  <FractionCsp3>  (2) 
0.05555555555555555

>  <TPSA>  (2) 
42.35000000000001

>  <LogP_WildmanCrippen>  (2) 
4.694020000000002

>  <General_Cluster>  (2) 
2

>  <Biological_Cluster>  (2) 
2

>  <Physicochemical_Cluster>  (2) 
6

>  <Structural_Cluster>  (2) 
3

$$$$
CHEMBL392732
     RDKit          3D

 44 47  0  0  0  0  0  0  0  0999 V2000
  104.8908   60.8460   45.0805 C   0  0  0  0  0  0  0  0  0  0  0  0
  104.0922   60.8808   43.9429 C   0  0  0  0  0  0  0  0  0  0  0  0
  110.0564   66.2860   32.1307 C   0  0  0  0  0  0  0  0  0  0  0  0
  109.3759   67.1641   31.2873 C   0  0  0  0  0  0  0  0  0  0  0  0
  105.8374   61.8428   45.2894 C   0  0  0  0  0  0  0  0  0  0  0  0
  109.4019   67.6130   34.0406 C   0  0  0  0  0  0  0  0  0  0  0  0
  104.2780   61.9254   43.0517 C   0  0  0  0  0  0  0  0  0  0  0  0
  108.4348   62.8215   42.4559 C   0  0  0  0  0  0  0  0  0  0  0  0
  110.9495   64.2646   34.1312 C   0  0  0  0  0  0  0  0  0  0  0  0
  110.0694   66.5104   33.5073 C   0  0  0  0  0  0  0  0  0  0  0  0
  108.7085   68.2668   31.8205 C   0  0  0  0  0  0  0  0  0  0  0  0
  108.7215   68.4912   33.1971 C   0  0  0  0  0  0  0  0  0  0  0  0
  110.7702   65.6058   34.3752 C   0  0  0  0  0  0  0  0  0  0  0  0
  105.9452   62.8442   44.3379 C   0  0  0  0  0  0  0  0  0  0  0  0
  108.1624   63.9806   43.1520 C   0  0  0  0  0  0  0  0  0  0  0  0
  111.8780   64.8685   36.0364 C   0  0  0  0  0  0  0  0  0  0  0  0
  109.6159   64.2181   41.2458 C   0  0  0  0  0  0  0  0  0  0  0  0
  111.1043   64.1558   39.2059 C   0  0  0  0  0  0  0  0  0  0  0  0
  112.6225   64.7140   37.2999 C   0  0  0  0  0  0  0  0  0  0  0  0
  105.1872   62.9115   43.2205 N   0  0  0  0  0  0  0  0  0  0  0  0
  109.2677   62.9559   41.3623 N   0  0  0  0  0  0  0  0  0  0  0  0
  111.3508   65.9756   35.5625 N   0  0  0  0  0  0  0  0  0  0  0  0
  111.6611   63.8060   35.2037 N   0  0  0  0  0  0  0  0  0  0  0  0
  110.4569   64.7960   40.2663 N   0  0  0  0  0  0  0  0  0  0  0  0
  111.8429   65.0804   38.4630 N   0  0  0  0  0  0  0  0  0  0  0  0
  111.0559   62.9587   38.9335 O   0  0  0  0  0  0  0  0  0  0  0  0
  108.9786   65.2980   42.4174 S   0  0  0  0  0  0  0  0  0  0  0  0
  107.1531   64.1511   44.5668 S   0  0  0  0  0  0  0  0  0  0  0  0
  107.8836   69.3182   30.7241 Cl  0  0  0  0  0  0  0  0  0  0  0  0
  107.9133   69.8399   33.9168 Cl  0  0  0  0  0  0  0  0  0  0  0  0
  104.7742   60.0331   45.8124 H   0  0  0  0  0  0  0  0  0  0  0  0
  103.3366   60.1035   43.7562 H   0  0  0  0  0  0  0  0  0  0  0  0
  110.5828   65.4165   31.7102 H   0  0  0  0  0  0  0  0  0  0  0  0
  109.3655   66.9870   30.2017 H   0  0  0  0  0  0  0  0  0  0  0  0
  106.4804   61.8366   46.1819 H   0  0  0  0  0  0  0  0  0  0  0  0
  109.4121   67.7899   35.1262 H   0  0  0  0  0  0  0  0  0  0  0  0
  103.6468   61.9541   42.1513 H   0  0  0  0  0  0  0  0  0  0  0  0
  108.0145   61.8495   42.7535 H   0  0  0  0  0  0  0  0  0  0  0  0
  110.5975   63.6876   33.2633 H   0  0  0  0  0  0  0  0  0  0  0  0
  112.9288   63.6623   37.4001 H   0  0  0  0  0  0  0  0  0  0  0  0
  113.4884   65.3911   37.2570 H   0  0  0  0  0  0  0  0  0  0  0  0
  111.9763   62.8374   35.3568 H   0  0  0  0  0  0  0  0  0  0  0  0
  110.6108   65.8115   40.3439 H   0  0  0  0  0  0  0  0  0  0  0  0
  111.8321   66.0677   38.7564 H   0  0  0  0  0  0  0  0  0  0  0  0
  1  2  2  0
  1  5  1  0
  2  7  1  0
  3  4  2  0
  3 10  1  0
  4 11  1  0
  5 14  2  0
  6 10  2  0
  6 12  1  0
  7 20  2  0
  8 15  2  0
  8 21  1  0
  9 13  2  0
  9 23  1  0
 10 13  1  0
 11 12  2  0
 11 29  1  0
 12 30  1  0
 13 22  1  0
 14 20  1  0
 14 28  1  0
 15 27  1  0
 15 28  1  0
 16 19  1  0
 16 22  2  0
 16 23  1  0
 17 21  2  0
 17 24  1  0
 17 27  1  0
 18 24  1  0
 18 25  1  0
 18 26  2  0
 19 25  1  0
  1 31  1  0
  2 32  1  0
  3 33  1  0
  4 34  1  0
  5 35  1  0
  6 36  1  0
  7 37  1  0
  8 38  1  0
  9 39  1  0
 19 40  1  0
 19 41  1  0
 23 42  1  0
 24 43  1  0
 25 44  1  0
M  END
>  <s_m_entry_id>  (3) 
21888

>  <s_m_Source_Path>  (3) 
C:\Users\vinicius\Downloads\Ligands_Ecoli

>  <s_m_Source_File>  (3) 
Ligands_Ecoli_o.sdf

>  <i_m_Source_File_Index>  (3) 
50

>  <i_f3d_flags>  (3) 
0

>  <r_lp_tautomer_probability>  (3) 
0.49950024419958

>  <r_epik_Ionization_Penalty>  (3) 
  0.0617

>  <r_epik_State_Penalty>  (3) 
  0.3771

>  <i_epik_Tot_Q>  (3) 
0

>  <s_m_job_name>  (3) 
ligs_ecFabI_ligprep_2

>  <class_value>  (3) 
0

>  <FRED Chemgauss4 score>  (3) 
-13.981361

>  <Name>  (3) 
CHEMBL392732

>  <Set>  (3) 
training

>  <HBA count>  (3) 
6

>  <HBD count>  (3) 
3

>  <ExactMolWt>  (3) 
476.0047564280005

>  <NumRotatableBounds>  (3) 
6

>  <FractionCsp3>  (3) 
0.05263157894736842

>  <TPSA>  (3) 
95.59

>  <LogP_WildmanCrippen>  (3) 
5.707900000000001

>  <General_Cluster>  (3) 
3

>  <Biological_Cluster>  (3) 
2

>  <Physicochemical_Cluster>  (3) 
7

>  <Structural_Cluster>  (3) 
4

$$$$
CHEMBL70618
     RDKit          3D

 54 58  0  0  0  0  0  0  0  0999 V2000
  109.3215   69.0404   43.2571 C   0  0  0  0  0  0  0  0  0  0  0  0
  109.2273   68.0514   44.2337 C   0  0  0  0  0  0  0  0  0  0  0  0
  109.8365   68.7483   41.9891 C   0  0  0  0  0  0  0  0  0  0  0  0
  109.8319   65.5343   36.2884 C   0  0  0  0  0  0  0  0  0  0  0  0
  111.8461   64.9192   35.1045 C   0  0  0  0  0  0  0  0  0  0  0  0
  109.3611   66.1861   35.1487 C   0  0  0  0  0  0  0  0  0  0  0  0
  111.3752   65.5709   33.9647 C   0  0  0  0  0  0  0  0  0  0  0  0
  108.7847   63.0873   44.2292 C   0  0  0  0  0  0  0  0  0  0  0  0
  108.6601   63.0311   41.8170 C   0  0  0  0  0  0  0  0  0  0  0  0
  109.6430   66.7421   43.9759 C   0  0  0  0  0  0  0  0  0  0  0  0
  107.5328   62.4774   44.3081 C   0  0  0  0  0  0  0  0  0  0  0  0
  107.4081   62.4211   41.8960 C   0  0  0  0  0  0  0  0  0  0  0  0
  110.2633   67.4356   41.7045 C   0  0  0  0  0  0  0  0  0  0  0  0
  111.0745   64.9009   36.2663 C   0  0  0  0  0  0  0  0  0  0  0  0
  110.8205   66.7950   40.5645 C   0  0  0  0  0  0  0  0  0  0  0  0
  110.1326   66.2044   33.9868 C   0  0  0  0  0  0  0  0  0  0  0  0
  109.3484   63.3642   42.9836 C   0  0  0  0  0  0  0  0  0  0  0  0
  110.1560   66.4622   42.7041 C   0  0  0  0  0  0  0  0  0  0  0  0
  106.8445   62.1442   43.1415 C   0  0  0  0  0  0  0  0  0  0  0  0
  111.0302   65.4716   40.8899 C   0  0  0  0  0  0  0  0  0  0  0  0
  111.5718   64.2128   37.4674 C   0  0  0  0  0  0  0  0  0  0  0  0
  111.1518   67.3202   39.2124 C   0  0  0  0  0  0  0  0  0  0  0  0
  111.6047   64.4210   40.0098 C   0  0  0  0  0  0  0  0  0  0  0  0
  112.1545   66.3820   38.5193 C   0  0  0  0  0  0  0  0  0  0  0  0
  109.6282   66.9006   32.7680 C   0  0  0  0  0  0  0  0  0  0  0  0
  110.6993   64.0217   42.8983 C   0  0  0  0  0  0  0  0  0  0  0  0
  110.6313   65.2777   42.1813 N   0  0  0  0  0  0  0  0  0  0  0  0
  111.7481   64.9648   38.6351 N   0  0  0  0  0  0  0  0  0  0  0  0
  111.7924   63.0078   37.3537 O   0  0  0  0  0  0  0  0  0  0  0  0
  105.6235   61.5479   43.2188 O   0  0  0  0  0  0  0  0  0  0  0  0
  108.9871   70.0632   43.4854 H   0  0  0  0  0  0  0  0  0  0  0  0
  108.8193   68.3049   45.2233 H   0  0  0  0  0  0  0  0  0  0  0  0
  109.9074   69.5345   41.2230 H   0  0  0  0  0  0  0  0  0  0  0  0
  109.2233   65.5197   37.2046 H   0  0  0  0  0  0  0  0  0  0  0  0
  112.8260   64.4197   35.0871 H   0  0  0  0  0  0  0  0  0  0  0  0
  108.3813   66.6858   35.1662 H   0  0  0  0  0  0  0  0  0  0  0  0
  111.9837   65.5853   33.0484 H   0  0  0  0  0  0  0  0  0  0  0  0
  109.3275   63.3499   45.1492 H   0  0  0  0  0  0  0  0  0  0  0  0
  109.1046   63.2494   40.8348 H   0  0  0  0  0  0  0  0  0  0  0  0
  109.5696   65.9594   44.7453 H   0  0  0  0  0  0  0  0  0  0  0  0
  107.0883   62.2592   45.2903 H   0  0  0  0  0  0  0  0  0  0  0  0
  106.8653   62.1584   40.9760 H   0  0  0  0  0  0  0  0  0  0  0  0
  110.2336   67.3824   38.6099 H   0  0  0  0  0  0  0  0  0  0  0  0
  111.5992   68.3202   39.3112 H   0  0  0  0  0  0  0  0  0  0  0  0
  112.5913   64.1194   40.3916 H   0  0  0  0  0  0  0  0  0  0  0  0
  110.9394   63.5451   39.9947 H   0  0  0  0  0  0  0  0  0  0  0  0
  112.2152   66.6495   37.4540 H   0  0  0  0  0  0  0  0  0  0  0  0
  113.1310   66.4999   39.0118 H   0  0  0  0  0  0  0  0  0  0  0  0
  109.0070   67.7580   33.0662 H   0  0  0  0  0  0  0  0  0  0  0  0
  110.4801   67.2556   32.1695 H   0  0  0  0  0  0  0  0  0  0  0  0
  109.0255   66.2017   32.1695 H   0  0  0  0  0  0  0  0  0  0  0  0
  111.0704   64.2105   43.9165 H   0  0  0  0  0  0  0  0  0  0  0  0
  111.3781   63.3487   42.3539 H   0  0  0  0  0  0  0  0  0  0  0  0
  105.1348   61.3113   42.3909 H   0  0  0  0  0  0  0  0  0  0  0  0
  1  2  2  0
  1  3  1  0
  2 10  1  0
  3 13  2  0
  4  6  2  0
  4 14  1  0
  5  7  1  0
  5 14  2  0
  6 16  1  0
  7 16  2  0
  8 11  2  0
  8 17  1  0
  9 12  1  0
  9 17  2  0
 10 18  2  0
 11 19  1  0
 12 19  2  0
 13 15  1  0
 13 18  1  0
 14 21  1  0
 15 20  2  0
 15 22  1  0
 16 25  1  0
 17 26  1  0
 18 27  1  0
 19 30  1  0
 20 23  1  0
 20 27  1  0
 21 28  1  0
 21 29  2  0
 22 24  1  0
 23 28  1  0
 24 28  1  0
 26 27  1  0
  1 31  1  0
  2 32  1  0
  3 33  1  0
  4 34  1  0
  5 35  1  0
  6 36  1  0
  7 37  1  0
  8 38  1  0
  9 39  1  0
 10 40  1  0
 11 41  1  0
 12 42  1  0
 22 43  1  0
 22 44  1  0
 23 45  1  0
 23 46  1  0
 24 47  1  0
 24 48  1  0
 25 49  1  0
 25 50  1  0
 25 51  1  0
 26 52  1  0
 26 53  1  0
 30 54  1  0
M  END
>  <s_m_entry_id>  (4) 
21851

>  <s_m_Source_Path>  (4) 
C:\Users\vinicius\Downloads\Ligands_Ecoli

>  <s_m_Source_File>  (4) 
Ligands_Ecoli_o.sdf

>  <i_m_Source_File_Index>  (4) 
28

>  <i_f3d_flags>  (4) 
0

>  <r_lp_tautomer_probability>  (4) 
0.999999999997365

>  <r_epik_Ionization_Penalty>  (4) 
  0.0024

>  <r_epik_State_Penalty>  (4) 
  0.0016

>  <i_epik_Tot_Q>  (4) 
0

>  <s_m_job_name>  (4) 
ligs_ecFabI_ligprep_2

>  <class_value>  (4) 
0

>  <FRED Chemgauss4 score>  (4) 
-13.862668

>  <Name>  (4) 
CHEMBL70618

>  <Set>  (4) 
training

>  <HBA count>  (4) 
3

>  <HBD count>  (4) 
1

>  <ExactMolWt>  (4) 
396.1837780080007

>  <NumRotatableBounds>  (4) 
5

>  <FractionCsp3>  (4) 
0.19230769230769232

>  <TPSA>  (4) 
45.47

>  <LogP_WildmanCrippen>  (4) 
4.902120000000005

>  <General_Cluster>  (4) 
1

>  <Biological_Cluster>  (4) 
2

>  <Physicochemical_Cluster>  (4) 
2

>  <Structural_Cluster>  (4) 
7

$$$$
CHEMBL62542
     RDKit          3D

 32 34  0  0  0  0  0  0  0  0999 V2000
  111.1286   63.7134   38.3811 C   0  0  0  0  0  0  0  0  0  0  0  0
  111.4802   65.8301   37.2707 C   0  0  0  0  0  0  0  0  0  0  0  0
  111.8842   64.1572   39.4663 C   0  0  0  0  0  0  0  0  0  0  0  0
  112.2358   66.2739   38.3560 C   0  0  0  0  0  0  0  0  0  0  0  0
  109.0372   68.8320   33.0835 C   0  0  0  0  0  0  0  0  0  0  0  0
  109.4037   65.8947   34.5199 C   0  0  0  0  0  0  0  0  0  0  0  0
  108.4966   69.6437   32.1107 C   0  0  0  0  0  0  0  0  0  0  0  0
  109.0432   67.4062   31.2480 C   0  0  0  0  0  0  0  0  0  0  0  0
  111.3465   64.9092   34.1266 C   0  0  0  0  0  0  0  0  0  0  0  0
  109.3540   67.5359   32.5838 C   0  0  0  0  0  0  0  0  0  0  0  0
  110.9267   64.5498   37.2832 C   0  0  0  0  0  0  0  0  0  0  0  0
  112.4377   65.4374   39.4538 C   0  0  0  0  0  0  0  0  0  0  0  0
  109.9446   66.4607   33.4001 C   0  0  0  0  0  0  0  0  0  0  0  0
  110.1193   64.0761   36.1223 C   0  0  0  0  0  0  0  0  0  0  0  0
  110.2920   64.9377   34.9480 N   0  0  0  0  0  0  0  0  0  0  0  0
  111.1464   65.8320   33.1801 N   0  0  0  0  0  4  0  0  0  0  0  0
  113.2001   65.8872   40.5517 N   0  0  0  0  0  0  0  0  0  0  0  0
  108.3726   68.8432   30.6019 S   0  0  0  0  0  0  0  0  0  0  0  0
  110.6919   62.7038   38.3911 H   0  0  0  0  0  0  0  0  0  0  0  0
  111.3208   66.4898   36.4050 H   0  0  0  0  0  0  0  0  0  0  0  0
  112.0436   63.4975   40.3320 H   0  0  0  0  0  0  0  0  0  0  0  0
  112.6724   67.2835   38.3461 H   0  0  0  0  0  0  0  0  0  0  0  0
  109.2046   69.1474   34.1239 H   0  0  0  0  0  0  0  0  0  0  0  0
  108.4429   66.1548   34.9882 H   0  0  0  0  0  0  0  0  0  0  0  0
  108.1817   70.6835   32.2827 H   0  0  0  0  0  0  0  0  0  0  0  0
  109.2066   66.4877   30.6651 H   0  0  0  0  0  0  0  0  0  0  0  0
  112.2203   64.2467   34.2137 H   0  0  0  0  0  0  0  0  0  0  0  0
  110.4343   63.0545   35.8632 H   0  0  0  0  0  0  0  0  0  0  0  0
  109.0583   64.1026   36.4115 H   0  0  0  0  0  0  0  0  0  0  0  0
  111.7931   66.0395   32.4058 H   0  0  0  0  0  0  0  0  0  0  0  0
  113.6087   66.8326   40.5422 H   0  0  0  0  0  0  0  0  0  0  0  0
  113.3483   65.2703   41.3631 H   0  0  0  0  0  0  0  0  0  0  0  0
  1  3  2  0
  1 11  1  0
  2  4  1  0
  2 11  2  0
  3 12  1  0
  4 12  2  0
  5  7  2  0
  5 10  1  0
  6 13  2  0
  6 15  1  0
  7 18  1  0
  8 10  2  0
  8 18  1  0
  9 15  1  0
  9 16  2  0
 10 13  1  0
 11 14  1  0
 12 17  1  0
 13 16  1  0
 14 15  1  0
  1 19  1  0
  2 20  1  0
  3 21  1  0
  4 22  1  0
  5 23  1  0
  6 24  1  0
  7 25  1  0
  8 26  1  0
  9 27  1  0
 14 28  1  0
 14 29  1  0
 16 30  1  0
 17 31  1  0
 17 32  1  0
M  CHG  1  16   1
M  END
>  <s_m_entry_id>  (5) 
21875

>  <s_m_Source_Path>  (5) 
C:\Users\vinicius\Downloads\Ligands_Ecoli

>  <s_m_Source_File>  (5) 
Ligands_Ecoli_o.sdf

>  <i_m_Source_File_Index>  (5) 
41

>  <i_f3d_flags>  (5) 
0

>  <r_lp_tautomer_probability>  (5) 
1

>  <r_epik_Ionization_Penalty>  (5) 
  0.9001

>  <r_epik_State_Penalty>  (5) 
  0.9395

>  <i_epik_Tot_Q>  (5) 
1

>  <s_m_job_name>  (5) 
ligs_ecFabI_ligprep_2

>  <class_value>  (5) 
0

>  <FRED Chemgauss4 score>  (5) 
-15.257610

>  <Name>  (5) 
CHEMBL62542

>  <Set>  (5) 
training

>  <HBA count>  (5) 
3

>  <HBD count>  (5) 
1

>  <ExactMolWt>  (5) 
256.09029486809

>  <NumRotatableBounds>  (5) 
4

>  <FractionCsp3>  (5) 
0.07142857142857142

>  <TPSA>  (5) 
45.09

>  <LogP_WildmanCrippen>  (5) 
2.6612

>  <General_Cluster>  (5) 
2

>  <Biological_Cluster>  (5) 
2

>  <Physicochemical_Cluster>  (5) 
6

>  <Structural_Cluster>  (5) 
1

$$$$
CHEMBL72232
     RDKit          3D

 52 56  0  0  0  0  0  0  0  0999 V2000
  109.3790   69.1093   43.0225 C   0  0  0  0  0  0  0  0  0  0  0  0
  109.3169   68.1500   44.0309 C   0  0  0  0  0  0  0  0  0  0  0  0
  109.8686   68.7832   41.7527 C   0  0  0  0  0  0  0  0  0  0  0  0
  109.7705   65.3945   36.1558 C   0  0  0  0  0  0  0  0  0  0  0  0
  111.7636   64.7636   34.9449 C   0  0  0  0  0  0  0  0  0  0  0  0
  108.9260   63.1841   44.1886 C   0  0  0  0  0  0  0  0  0  0  0  0
  108.7483   63.0522   41.7827 C   0  0  0  0  0  0  0  0  0  0  0  0
  109.7403   66.8375   43.8041 C   0  0  0  0  0  0  0  0  0  0  0  0
  109.2669   66.0066   35.0081 C   0  0  0  0  0  0  0  0  0  0  0  0
  111.2601   65.3757   33.7971 C   0  0  0  0  0  0  0  0  0  0  0  0
  107.6826   62.5648   44.3144 C   0  0  0  0  0  0  0  0  0  0  0  0
  107.5048   62.4328   41.9086 C   0  0  0  0  0  0  0  0  0  0  0  0
  110.3027   67.4665   41.4989 C   0  0  0  0  0  0  0  0  0  0  0  0
  111.0189   64.7730   36.1242 C   0  0  0  0  0  0  0  0  0  0  0  0
  110.8410   66.7965   40.3669 C   0  0  0  0  0  0  0  0  0  0  0  0
  109.4589   63.4279   42.9227 C   0  0  0  0  0  0  0  0  0  0  0  0
  110.2278   66.5234   42.5302 C   0  0  0  0  0  0  0  0  0  0  0  0
  110.0117   65.9973   33.8287 C   0  0  0  0  0  0  0  0  0  0  0  0
  106.9720   62.1891   43.1745 C   0  0  0  0  0  0  0  0  0  0  0  0
  111.0716   65.4858   40.7279 C   0  0  0  0  0  0  0  0  0  0  0  0
  111.5500   64.1273   37.3343 C   0  0  0  0  0  0  0  0  0  0  0  0
  111.1365   67.2829   38.9922 C   0  0  0  0  0  0  0  0  0  0  0  0
  111.6373   64.4141   39.8677 C   0  0  0  0  0  0  0  0  0  0  0  0
  112.1333   66.3334   38.3057 C   0  0  0  0  0  0  0  0  0  0  0  0
  110.8006   64.0955   42.7868 C   0  0  0  0  0  0  0  0  0  0  0  0
  110.7036   65.3281   42.0333 N   0  0  0  0  0  0  0  0  0  0  0  0
  111.7444   64.9166   38.4740 N   0  0  0  0  0  0  0  0  0  0  0  0
  111.7805   62.9215   37.2526 O   0  0  0  0  0  0  0  0  0  0  0  0
  109.5207   66.5946   32.7087 O   0  0  0  0  0  0  0  0  0  0  0  0
  105.7593   61.5836   43.2975 O   0  0  0  0  0  0  0  0  0  0  0  0
  109.0391   70.1353   43.2269 H   0  0  0  0  0  0  0  0  0  0  0  0
  108.9285   68.4300   45.0212 H   0  0  0  0  0  0  0  0  0  0  0  0
  109.9141   69.5460   40.9615 H   0  0  0  0  0  0  0  0  0  0  0  0
  109.1832   65.4019   37.0859 H   0  0  0  0  0  0  0  0  0  0  0  0
  112.7480   64.2734   34.9200 H   0  0  0  0  0  0  0  0  0  0  0  0
  109.4864   63.4803   45.0876 H   0  0  0  0  0  0  0  0  0  0  0  0
  109.1685   63.2444   40.7845 H   0  0  0  0  0  0  0  0  0  0  0  0
  109.6921   66.0782   44.5986 H   0  0  0  0  0  0  0  0  0  0  0  0
  108.2824   66.4967   35.0330 H   0  0  0  0  0  0  0  0  0  0  0  0
  111.8474   65.3682   32.8671 H   0  0  0  0  0  0  0  0  0  0  0  0
  107.2624   62.3727   45.3126 H   0  0  0  0  0  0  0  0  0  0  0  0
  106.9444   62.1365   41.0096 H   0  0  0  0  0  0  0  0  0  0  0  0
  110.2045   67.3175   38.4090 H   0  0  0  0  0  0  0  0  0  0  0  0
  111.5755   68.2898   39.0501 H   0  0  0  0  0  0  0  0  0  0  0  0
  112.6352   64.1341   40.2362 H   0  0  0  0  0  0  0  0  0  0  0  0
  110.9810   63.5317   39.8945 H   0  0  0  0  0  0  0  0  0  0  0  0
  112.1675   66.5684   37.2316 H   0  0  0  0  0  0  0  0  0  0  0  0
  113.1192   66.4759   38.7722 H   0  0  0  0  0  0  0  0  0  0  0  0
  111.1923   64.3192   43.7901 H   0  0  0  0  0  0  0  0  0  0  0  0
  111.4740   63.4126   42.2482 H   0  0  0  0  0  0  0  0  0  0  0  0
  110.0495   66.5879   31.8718 H   0  0  0  0  0  0  0  0  0  0  0  0
  105.2549   61.3169   42.4885 H   0  0  0  0  0  0  0  0  0  0  0  0
  1  2  2  0
  1  3  1  0
  2  8  1  0
  3 13  2  0
  4  9  2  0
  4 14  1  0
  5 10  1  0
  5 14  2  0
  6 11  2  0
  6 16  1  0
  7 12  1  0
  7 16  2  0
  8 17  2  0
  9 18  1  0
 10 18  2  0
 11 19  1  0
 12 19  2  0
 13 15  1  0
 13 17  1  0
 14 21  1  0
 15 20  2  0
 15 22  1  0
 16 25  1  0
 17 26  1  0
 18 29  1  0
 19 30  1  0
 20 23  1  0
 20 26  1  0
 21 27  1  0
 21 28  2  0
 22 24  1  0
 23 27  1  0
 24 27  1  0
 25 26  1  0
  1 31  1  0
  2 32  1  0
  3 33  1  0
  4 34  1  0
  5 35  1  0
  6 36  1  0
  7 37  1  0
  8 38  1  0
  9 39  1  0
 10 40  1  0
 11 41  1  0
 12 42  1  0
 22 43  1  0
 22 44  1  0
 23 45  1  0
 23 46  1  0
 24 47  1  0
 24 48  1  0
 25 49  1  0
 25 50  1  0
 29 51  1  0
 30 52  1  0
M  END
>  <s_m_entry_id>  (6) 
21845

>  <s_m_Source_Path>  (6) 
C:\Users\vinicius\Downloads\Ligands_Ecoli

>  <s_m_Source_File>  (6) 
Ligands_Ecoli_o.sdf

>  <i_m_Source_File_Index>  (6) 
25

>  <i_f3d_flags>  (6) 
0

>  <r_lp_tautomer_probability>  (6) 
0.99999999999473

>  <r_epik_Ionization_Penalty>  (6) 
  0.0382

>  <r_epik_State_Penalty>  (6) 
  0.0299

>  <i_epik_Tot_Q>  (6) 
0

>  <s_m_job_name>  (6) 
ligs_ecFabI_ligprep_2

>  <class_value>  (6) 
0

>  <FRED Chemgauss4 score>  (6) 
-13.268883

>  <Name>  (6) 
CHEMBL72232

>  <Set>  (6) 
training

>  <HBA count>  (6) 
4

>  <HBD count>  (6) 
2

>  <ExactMolWt>  (6) 
398.1630425640006

>  <NumRotatableBounds>  (6) 
5

>  <FractionCsp3>  (6) 
0.16

>  <TPSA>  (6) 
65.7

>  <LogP_WildmanCrippen>  (6) 
4.299300000000004

>  <General_Cluster>  (6) 
1

>  <Biological_Cluster>  (6) 
2

>  <Physicochemical_Cluster>  (6) 
3

>  <Structural_Cluster>  (6) 
7

$$$$
CHEMBL2178327
     RDKit          3D

 22 23  0  0  0  0  0  0  0  0999 V2000
  111.7566   63.9206   39.8436 C   0  0  0  0  0  0  0  0  0  0  0  0
  109.3015   65.1908   35.1660 C   0  0  0  0  0  0  0  0  0  0  0  0
  109.1872   66.0204   34.0505 C   0  0  0  0  0  0  0  0  0  0  0  0
  111.1705   63.3573   38.7156 C   0  0  0  0  0  0  0  0  0  0  0  0
  112.2325   65.2262   39.7945 C   0  0  0  0  0  0  0  0  0  0  0  0
  111.3382   65.2544   33.2606 C   0  0  0  0  0  0  0  0  0  0  0  0
  111.4525   64.4249   34.3762 C   0  0  0  0  0  0  0  0  0  0  0  0
  110.4342   64.3931   35.3289 C   0  0  0  0  0  0  0  0  0  0  0  0
  110.2055   66.0521   33.0978 C   0  0  0  0  0  0  0  0  0  0  0  0
  111.0848   64.1352   37.5722 C   0  0  0  0  0  0  0  0  0  0  0  0
  112.0995   65.9203   38.6027 C   0  0  0  0  0  0  0  0  0  0  0  0
  111.5359   65.4067   37.4864 N   0  0  0  0  0  0  0  0  0  0  0  0
  112.5011   63.6980   34.5101 O   0  0  0  0  0  1  0  0  0  0  0  0
  110.5043   63.5986   36.4382 O   0  0  0  0  0  0  0  0  0  0  0  0
  112.5532   67.1818   38.5419 F   0  0  0  0  0  0  0  0  0  0  0  0
  110.0629   67.0771   31.7224 Cl  0  0  0  0  0  0  0  0  0  0  0  0
  111.8435   63.3357   40.7712 H   0  0  0  0  0  0  0  0  0  0  0  0
  108.4984   65.1656   35.9173 H   0  0  0  0  0  0  0  0  0  0  0  0
  108.2941   66.6496   33.9221 H   0  0  0  0  0  0  0  0  0  0  0  0
  110.7869   62.3265   38.7305 H   0  0  0  0  0  0  0  0  0  0  0  0
  112.6998   65.6932   40.6740 H   0  0  0  0  0  0  0  0  0  0  0  0
  112.1412   65.2795   32.5093 H   0  0  0  0  0  0  0  0  0  0  0  0
  1  4  2  0
  1  5  1  0
  2  3  2  0
  2  8  1  0
  3  9  1  0
  4 10  1  0
  5 11  2  0
  6  7  1  0
  6  9  2  0
  7  8  2  0
  7 13  1  0
  8 14  1  0
  9 16  1  0
 10 12  2  0
 10 14  1  0
 11 12  1  0
 11 15  1  0
  1 17  1  0
  2 18  1  0
  3 19  1  0
  4 20  1  0
  5 21  1  0
  6 22  1  0
M  CHG  1  13  -1
M  END
>  <s_m_entry_id>  (7) 
22032

>  <s_m_Source_Path>  (7) 
C:\Users\vinicius\Downloads\Ligands_Ecoli

>  <s_m_Source_File>  (7) 
Ligands_Ecoli_o.sdf

>  <i_m_Source_File_Index>  (7) 
118

>  <i_f3d_flags>  (7) 
0

>  <r_lp_tautomer_probability>  (7) 
1

>  <r_epik_Ionization_Penalty>  (7) 
  2.1913

>  <r_epik_State_Penalty>  (7) 
  2.3341

>  <i_epik_Tot_Q>  (7) 
-1

>  <s_m_job_name>  (7) 
ligs_ecFabI_ligprep_2

>  <class_value>  (7) 
1

>  <FRED Chemgauss4 score>  (7) 
-14.450356

>  <Name>  (7) 
CHEMBL2178327

>  <Set>  (7) 
training

>  <HBA count>  (7) 
3

>  <HBD count>  (7) 
0

>  <ExactMolWt>  (7) 
238.00765791191

>  <NumRotatableBounds>  (7) 
2

>  <FractionCsp3>  (7) 
0.0

>  <TPSA>  (7) 
45.18000000000001

>  <LogP_WildmanCrippen>  (7) 
2.740000000000001

>  <General_Cluster>  (7) 
2

>  <Biological_Cluster>  (7) 
1

>  <Physicochemical_Cluster>  (7) 
6

>  <Structural_Cluster>  (7) 
1

$$$$
CHEMBL571088
     RDKit          3D

 63 67  0  0  0  0  0  0  0  0999 V2000
  109.2536   70.1757   31.9870 C   0  0  0  0  0  0  0  0  0  0  0  0
  108.0105   69.6302   31.6727 C   0  0  0  0  0  0  0  0  0  0  0  0
  110.2048   69.4307   32.6936 C   0  0  0  0  0  0  0  0  0  0  0  0
  107.6783   68.3267   32.0530 C   0  0  0  0  0  0  0  0  0  0  0  0
  110.5938   67.0986   33.7956 C   0  0  0  0  0  0  0  0  0  0  0  0
  110.6933   66.2859   39.2474 C   0  0  0  0  0  0  0  0  0  0  0  0
  112.8077   65.8199   40.2233 C   0  0  0  0  0  0  0  0  0  0  0  0
  109.8925   68.1143   33.0875 C   0  0  0  0  0  0  0  0  0  0  0  0
  111.9629   65.7337   39.1309 C   0  0  0  0  0  0  0  0  0  0  0  0
  110.3032   66.8842   40.4462 C   0  0  0  0  0  0  0  0  0  0  0  0
  108.6390   67.5938   32.7588 C   0  0  0  0  0  0  0  0  0  0  0  0
  109.7679   66.0017   33.8817 C   0  0  0  0  0  0  0  0  0  0  0  0
  111.2225   66.9162   41.4907 C   0  0  0  0  0  0  0  0  0  0  0  0
  109.5867   68.0002   42.9939 C   0  0  0  0  0  0  0  0  0  0  0  0
  112.3939   65.0994   37.8986 C   0  0  0  0  0  0  0  0  0  0  0  0
  111.8377   65.2964   36.6799 C   0  0  0  0  0  0  0  0  0  0  0  0
  112.3520   64.5572   35.4894 C   0  0  0  0  0  0  0  0  0  0  0  0
  108.9766   67.5679   40.5922 C   0  0  0  0  0  0  0  0  0  0  0  0
  107.2298   68.4805   42.1385 C   0  0  0  0  0  0  0  0  0  0  0  0
  108.0420   66.0861   42.4298 C   0  0  0  0  0  0  0  0  0  0  0  0
  106.3869   68.3269   43.3987 C   0  0  0  0  0  0  0  0  0  0  0  0
  107.2328   66.0050   43.7164 C   0  0  0  0  0  0  0  0  0  0  0  0
  108.4545   67.5335   42.0498 C   0  0  0  0  0  0  0  0  0  0  0  0
  107.4592   65.4149   33.1258 C   0  0  0  0  0  0  0  0  0  0  0  0
  111.8382   63.5426   33.3024 C   0  0  0  0  0  0  0  0  0  0  0  0
  110.0087   64.6653   34.5222 C   0  0  0  0  0  0  0  0  0  0  0  0
  112.4720   66.4037   41.3954 N   0  0  0  0  0  0  0  0  0  0  0  0
  108.5912   66.3099   33.2533 N   0  0  0  0  0  0  0  0  0  0  0  0
  110.8569   67.5420   42.6951 N   0  0  0  0  0  0  0  0  0  0  0  0
  111.4200   64.2866   34.4835 N   0  0  0  0  0  0  0  0  0  0  0  0
  106.0442   66.8936   43.6010 N   0  0  0  0  0  4  0  0  0  0  0  0
  109.3729   68.6717   44.0042 O   0  0  0  0  0  0  0  0  0  0  0  0
  113.5316   64.2044   35.4509 O   0  0  0  0  0  0  0  0  0  0  0  0
  109.4902   71.2040   31.6761 H   0  0  0  0  0  0  0  0  0  0  0  0
  107.2790   70.2349   31.1165 H   0  0  0  0  0  0  0  0  0  0  0  0
  111.1842   69.8675   32.9384 H   0  0  0  0  0  0  0  0  0  0  0  0
  106.6979   67.8931   31.8065 H   0  0  0  0  0  0  0  0  0  0  0  0
  111.6133   67.1765   34.2013 H   0  0  0  0  0  0  0  0  0  0  0  0
  109.9971   66.2515   38.3964 H   0  0  0  0  0  0  0  0  0  0  0  0
  113.8147   65.3866   40.1324 H   0  0  0  0  0  0  0  0  0  0  0  0
  113.2419   64.4014   37.9597 H   0  0  0  0  0  0  0  0  0  0  0  0
  111.0033   66.0042   36.5666 H   0  0  0  0  0  0  0  0  0  0  0  0
  109.0831   68.6171   40.2793 H   0  0  0  0  0  0  0  0  0  0  0  0
  108.2511   67.0323   39.9623 H   0  0  0  0  0  0  0  0  0  0  0  0
  106.5837   68.2851   41.2699 H   0  0  0  0  0  0  0  0  0  0  0  0
  107.6333   69.5036   42.1613 H   0  0  0  0  0  0  0  0  0  0  0  0
  108.9547   65.4848   42.5537 H   0  0  0  0  0  0  0  0  0  0  0  0
  107.4013   65.7082   41.6194 H   0  0  0  0  0  0  0  0  0  0  0  0
  106.9560   68.6927   44.2661 H   0  0  0  0  0  0  0  0  0  0  0  0
  105.4611   68.9112   43.2912 H   0  0  0  0  0  0  0  0  0  0  0  0
  106.9032   64.9683   43.8795 H   0  0  0  0  0  0  0  0  0  0  0  0
  107.8540   66.3254   44.5657 H   0  0  0  0  0  0  0  0  0  0  0  0
  107.1011   65.1318   34.1266 H   0  0  0  0  0  0  0  0  0  0  0  0
  106.6515   65.9212   32.5770 H   0  0  0  0  0  0  0  0  0  0  0  0
  107.7655   64.5121   32.5770 H   0  0  0  0  0  0  0  0  0  0  0  0
  112.3553   62.6226   33.6126 H   0  0  0  0  0  0  0  0  0  0  0  0
  110.9546   63.2817   32.7015 H   0  0  0  0  0  0  0  0  0  0  0  0
  112.5204   64.1619   32.7015 H   0  0  0  0  0  0  0  0  0  0  0  0
  109.6815   64.7101   35.5715 H   0  0  0  0  0  0  0  0  0  0  0  0
  109.4387   63.9110   33.9599 H   0  0  0  0  0  0  0  0  0  0  0  0
  111.5894   67.6687   43.4080 H   0  0  0  0  0  0  0  0  0  0  0  0
  105.4908   66.8104   44.4657 H   0  0  0  0  0  0  0  0  0  0  0  0
  105.5201   66.5889   42.7683 H   0  0  0  0  0  0  0  0  0  0  0  0
  1  2  2  0
  1  3  1  0
  2  4  1  0
  3  8  2  0
  4 11  2  0
  5  8  1  0
  5 12  2  0
  6  9  2  0
  6 10  1  0
  7  9  1  0
  7 27  2  0
  8 11  1  0
  9 15  1  0
 10 13  2  0
 10 18  1  0
 11 28  1  0
 12 26  1  0
 12 28  1  0
 13 27  1  0
 13 29  1  0
 14 23  1  0
 14 29  1  0
 14 32  2  0
 15 16  2  0
 16 17  1  0
 17 30  1  0
 17 33  2  0
 18 23  1  0
 19 21  1  0
 19 23  1  0
 20 22  1  0
 20 23  1  0
 21 31  1  0
 22 31  1  0
 24 28  1  0
 25 30  1  0
 26 30  1  0
  1 34  1  0
  2 35  1  0
  3 36  1  0
  4 37  1  0
  5 38  1  0
  6 39  1  0
  7 40  1  0
 15 41  1  0
 16 42  1  0
 18 43  1  0
 18 44  1  0
 19 45  1  0
 19 46  1  0
 20 47  1  0
 20 48  1  0
 21 49  1  0
 21 50  1  0
 22 51  1  0
 22 52  1  0
 24 53  1  0
 24 54  1  0
 24 55  1  0
 25 56  1  0
 25 57  1  0
 25 58  1  0
 26 59  1  0
 26 60  1  0
 29 61  1  0
 31 62  1  0
 31 63  1  0
M  CHG  1  31   1
M  END
>  <s_m_entry_id>  (8) 
21996

>  <s_m_Source_Path>  (8) 
C:\Users\vinicius\Downloads\Ligands_Ecoli

>  <s_m_Source_File>  (8) 
Ligands_Ecoli_o.sdf

>  <i_m_Source_File_Index>  (8) 
99

>  <i_f3d_flags>  (8) 
0

>  <r_epik_Ionization_Penalty>  (8) 
  0.0037

>  <r_epik_State_Penalty>  (8) 
  0.0026

>  <i_epik_Tot_Q>  (8) 
1

>  <s_m_job_name>  (8) 
ligs_ecFabI_ligprep_2

>  <class_value>  (8) 
1

>  <FRED Chemgauss4 score>  (8) 
-14.003529

>  <Name>  (8) 
CHEMBL571088

>  <Set>  (8) 
training

>  <HBA count>  (8) 
4

>  <HBD count>  (8) 
2

>  <ExactMolWt>  (8) 
444.2394016200909

>  <NumRotatableBounds>  (8) 
6

>  <FractionCsp3>  (8) 
0.34615384615384615

>  <TPSA>  (8) 
83.84

>  <LogP_WildmanCrippen>  (8) 
2.0833000000000004

>  <General_Cluster>  (8) 
4

>  <Biological_Cluster>  (8) 
1

>  <Physicochemical_Cluster>  (8) 
3

>  <Structural_Cluster>  (8) 
5

$$$$
CHEMBL2178308
     RDKit          3D

 36 37  0  0  0  0  0  0  0  0999 V2000
  112.1411   66.4391   39.1235 C   0  0  0  0  0  0  0  0  0  0  0  0
  109.2709   66.0914   34.4658 C   0  0  0  0  0  0  0  0  0  0  0  0
  111.9632   65.7131   37.9459 C   0  0  0  0  0  0  0  0  0  0  0  0
  111.5196   66.0221   40.3007 C   0  0  0  0  0  0  0  0  0  0  0  0
  109.5795   65.3543   35.6090 C   0  0  0  0  0  0  0  0  0  0  0  0
  111.2505   65.2336   33.3784 C   0  0  0  0  0  0  0  0  0  0  0  0
  110.5421   64.1531   39.1225 C   0  0  0  0  0  0  0  0  0  0  0  0
  110.1063   66.0310   33.3504 C   0  0  0  0  0  0  0  0  0  0  0  0
  111.5591   64.4966   34.5217 C   0  0  0  0  0  0  0  0  0  0  0  0
  111.1637   64.5701   37.9454 C   0  0  0  0  0  0  0  0  0  0  0  0
  110.7201   64.8792   40.3001 C   0  0  0  0  0  0  0  0  0  0  0  0
  110.7236   64.5569   35.6370 C   0  0  0  0  0  0  0  0  0  0  0  0
  109.8909   69.0474   33.3317 C   0  0  0  0  0  0  0  0  0  0  0  0
  109.3120   63.2945   41.3781 C   0  0  0  0  0  0  0  0  0  0  0  0
  109.7762   66.8199   32.1284 C   0  0  0  0  0  0  0  0  0  0  0  0
  110.4008   68.2230   32.1603 C   0  0  0  0  0  0  0  0  0  0  0  0
  112.6155   63.7685   34.5301 O   0  0  0  0  0  1  0  0  0  0  0  0
  110.9859   63.8519   36.7777 O   0  0  0  0  0  0  0  0  0  0  0  0
  110.1156   64.4714   41.4492 O   0  0  0  0  0  0  0  0  0  0  0  0
  112.7715   67.3405   39.1239 H   0  0  0  0  0  0  0  0  0  0  0  0
  108.3687   66.7203   34.4438 H   0  0  0  0  0  0  0  0  0  0  0  0
  112.4534   66.0419   37.0177 H   0  0  0  0  0  0  0  0  0  0  0  0
  111.6600   66.5946   41.2294 H   0  0  0  0  0  0  0  0  0  0  0  0
  108.9206   65.4018   36.4885 H   0  0  0  0  0  0  0  0  0  0  0  0
  111.9094   65.1860   32.4989 H   0  0  0  0  0  0  0  0  0  0  0  0
  109.9116   63.2517   39.1221 H   0  0  0  0  0  0  0  0  0  0  0  0
  110.1882   68.5667   34.2754 H   0  0  0  0  0  0  0  0  0  0  0  0
  110.3216   70.0584   33.2836 H   0  0  0  0  0  0  0  0  0  0  0  0
  108.7939   69.1135   33.2836 H   0  0  0  0  0  0  0  0  0  0  0  0
  109.0764   62.9494   42.3956 H   0  0  0  0  0  0  0  0  0  0  0  0
  108.3783   63.5199   40.8419 H   0  0  0  0  0  0  0  0  0  0  0  0
  109.8618   62.5069   40.8419 H   0  0  0  0  0  0  0  0  0  0  0  0
  110.1552   66.2829   31.2464 H   0  0  0  0  0  0  0  0  0  0  0  0
  108.6832   66.9365   32.0854 H   0  0  0  0  0  0  0  0  0  0  0  0
  110.1514   68.7440   31.2242 H   0  0  0  0  0  0  0  0  0  0  0  0
  111.4888   68.1079   32.2741 H   0  0  0  0  0  0  0  0  0  0  0  0
  1  3  2  0
  1  4  1  0
  2  5  2  0
  2  8  1  0
  3 10  1  0
  4 11  2  0
  5 12  1  0
  6  8  2  0
  6  9  1  0
  7 10  2  0
  7 11  1  0
  8 15  1  0
  9 12  2  0
  9 17  1  0
 10 18  1  0
 11 19  1  0
 12 18  1  0
 13 16  1  0
 14 19  1  0
 15 16  1  0
  1 20  1  0
  2 21  1  0
  3 22  1  0
  4 23  1  0
  5 24  1  0
  6 25  1  0
  7 26  1  0
 13 27  1  0
 13 28  1  0
 13 29  1  0
 14 30  1  0
 14 31  1  0
 14 32  1  0
 15 33  1  0
 15 34  1  0
 16 35  1  0
 16 36  1  0
M  CHG  1  17  -1
M  END
>  <s_m_entry_id>  (9) 
22027

>  <s_m_Source_Path>  (9) 
C:\Users\vinicius\Downloads\Ligands_Ecoli

>  <s_m_Source_File>  (9) 
Ligands_Ecoli_o.sdf

>  <i_m_Source_File_Index>  (9) 
115

>  <i_f3d_flags>  (9) 
0

>  <r_lp_tautomer_probability>  (9) 
1

>  <r_epik_Ionization_Penalty>  (9) 
  1.3987

>  <r_epik_State_Penalty>  (9) 
  1.4807

>  <i_epik_Tot_Q>  (9) 
-1

>  <s_m_job_name>  (9) 
ligs_ecFabI_ligprep_2

>  <class_value>  (9) 
0

>  <FRED Chemgauss4 score>  (9) 
-16.442707

>  <Name>  (9) 
CHEMBL2178308

>  <Set>  (9) 
training

>  <HBA count>  (9) 
3

>  <HBD count>  (9) 
0

>  <ExactMolWt>  (9) 
257.11831798391006

>  <NumRotatableBounds>  (9) 
7

>  <FractionCsp3>  (9) 
0.25

>  <TPSA>  (9) 
41.519999999999996

>  <LogP_WildmanCrippen>  (9) 
3.513600000000002

>  <General_Cluster>  (9) 
1

>  <Biological_Cluster>  (9) 
2

>  <Physicochemical_Cluster>  (9) 
3

>  <Structural_Cluster>  (9) 
3

$$$$
CHEMBL70368
     RDKit          3D

 56 59  0  0  0  0  0  0  0  0999 V2000
  107.0947   62.4767   44.6194 C   0  0  0  0  0  0  0  0  0  0  0  0
  106.2610   63.5743   44.4163 C   0  0  0  0  0  0  0  0  0  0  0  0
  108.2290   62.2818   43.8233 C   0  0  0  0  0  0  0  0  0  0  0  0
  111.6455   65.7754   36.8684 C   0  0  0  0  0  0  0  0  0  0  0  0
  109.9313   64.1015   36.5578 C   0  0  0  0  0  0  0  0  0  0  0  0
  106.5325   64.5097   43.4139 C   0  0  0  0  0  0  0  0  0  0  0  0
  111.0994   66.5277   35.8285 C   0  0  0  0  0  0  0  0  0  0  0  0
  109.3851   64.8539   35.5179 C   0  0  0  0  0  0  0  0  0  0  0  0
  108.5251   63.2114   42.8062 C   0  0  0  0  0  0  0  0  0  0  0  0
  111.0615   64.5623   37.2330 C   0  0  0  0  0  0  0  0  0  0  0  0
  109.5573   63.3312   41.8364 C   0  0  0  0  0  0  0  0  0  0  0  0
  107.6695   64.3038   42.6242 C   0  0  0  0  0  0  0  0  0  0  0  0
  109.9692   66.0670   35.1533 C   0  0  0  0  0  0  0  0  0  0  0  0
  109.3069   64.4687   41.0983 C   0  0  0  0  0  0  0  0  0  0  0  0
  111.6371   63.7689   38.3297 C   0  0  0  0  0  0  0  0  0  0  0  0
  109.1897   69.0022   45.0562 C   0  0  0  0  0  0  0  0  0  0  0  0
  110.7324   62.4653   41.5471 C   0  0  0  0  0  0  0  0  0  0  0  0
  110.1261   64.9981   39.9771 C   0  0  0  0  0  0  0  0  0  0  0  0
  111.7831   63.2601   40.7528 C   0  0  0  0  0  0  0  0  0  0  0  0
  107.9232   69.1607   47.0483 C   0  0  0  0  0  0  0  0  0  0  0  0
  109.0422   68.9230   43.5524 C   0  0  0  0  0  0  0  0  0  0  0  0
  108.3422   67.6463   43.0851 C   0  0  0  0  0  0  0  0  0  0  0  0
  108.2726   67.5474   41.5557 C   0  0  0  0  0  0  0  0  0  0  0  0
  107.5756   66.2707   41.0714 C   0  0  0  0  0  0  0  0  0  0  0  0
  108.1704   65.0526   41.5799 N   0  0  0  0  0  0  0  0  0  0  0  0
  111.1726   64.0030   39.6293 N   0  0  0  0  0  0  0  0  0  0  0  0
  112.5016   62.9516   38.0165 O   0  0  0  0  0  0  0  0  0  0  0  0
  110.2533   69.0391   45.6595 O   0  0  0  0  0  0  0  0  0  0  0  0
  109.4362   66.8007   34.1384 O   0  0  0  0  0  0  0  0  0  0  0  0
  107.9470   69.0539   45.6213 O   0  0  0  0  0  0  0  0  0  0  0  0
  106.8585   61.7547   45.4150 H   0  0  0  0  0  0  0  0  0  0  0  0
  105.3752   63.7068   45.0549 H   0  0  0  0  0  0  0  0  0  0  0  0
  108.8823   61.4126   43.9896 H   0  0  0  0  0  0  0  0  0  0  0  0
  112.5367   66.1388   37.4010 H   0  0  0  0  0  0  0  0  0  0  0  0
  109.4707   63.1448   36.8453 H   0  0  0  0  0  0  0  0  0  0  0  0
  105.8758   65.3770   43.2514 H   0  0  0  0  0  0  0  0  0  0  0  0
  111.5601   67.4843   35.5409 H   0  0  0  0  0  0  0  0  0  0  0  0
  108.4938   64.4906   34.9854 H   0  0  0  0  0  0  0  0  0  0  0  0
  111.1741   62.1210   42.4939 H   0  0  0  0  0  0  0  0  0  0  0  0
  110.4072   61.5987   40.9527 H   0  0  0  0  0  0  0  0  0  0  0  0
  109.4827   65.1772   39.1030 H   0  0  0  0  0  0  0  0  0  0  0  0
  110.5992   65.9445   40.2778 H   0  0  0  0  0  0  0  0  0  0  0  0
  112.2743   63.9759   41.4284 H   0  0  0  0  0  0  0  0  0  0  0  0
  112.5105   62.5471   40.3374 H   0  0  0  0  0  0  0  0  0  0  0  0
  108.1420   68.1788   47.4932 H   0  0  0  0  0  0  0  0  0  0  0  0
  108.6813   69.8881   47.3743 H   0  0  0  0  0  0  0  0  0  0  0  0
  106.9280   69.4974   47.3743 H   0  0  0  0  0  0  0  0  0  0  0  0
  108.4552   69.7888   43.2121 H   0  0  0  0  0  0  0  0  0  0  0  0
  110.0550   68.9179   43.1232 H   0  0  0  0  0  0  0  0  0  0  0  0
  108.8959   66.7777   43.4710 H   0  0  0  0  0  0  0  0  0  0  0  0
  107.3114   67.6679   43.4684 H   0  0  0  0  0  0  0  0  0  0  0  0
  107.7182   68.4168   41.1727 H   0  0  0  0  0  0  0  0  0  0  0  0
  109.3059   67.5224   41.1792 H   0  0  0  0  0  0  0  0  0  0  0  0
  106.5248   66.3050   41.3948 H   0  0  0  0  0  0  0  0  0  0  0  0
  107.6779   66.2449   39.9765 H   0  0  0  0  0  0  0  0  0  0  0  0
  108.6340   66.4735   33.6593 H   0  0  0  0  0  0  0  0  0  0  0  0
  1  2  2  0
  1  3  1  0
  2  6  1  0
  3  9  2  0
  4  7  2  0
  4 10  1  0
  5  8  1  0
  5 10  2  0
  6 12  2  0
  7 13  1  0
  8 13  2  0
  9 11  1  0
  9 12  1  0
 10 15  1  0
 11 14  2  0
 11 17  1  0
 12 25  1  0
 13 29  1  0
 14 18  1  0
 14 25  1  0
 15 26  1  0
 15 27  2  0
 16 21  1  0
 16 28  2  0
 16 30  1  0
 17 19  1  0
 18 26  1  0
 19 26  1  0
 20 30  1  0
 21 22  1  0
 22 23  1  0
 23 24  1  0
 24 25  1  0
  1 31  1  0
  2 32  1  0
  3 33  1  0
  4 34  1  0
  5 35  1  0
  6 36  1  0
  7 37  1  0
  8 38  1  0
 17 39  1  0
 17 40  1  0
 18 41  1  0
 18 42  1  0
 19 43  1  0
 19 44  1  0
 20 45  1  0
 20 46  1  0
 20 47  1  0
 21 48  1  0
 21 49  1  0
 22 50  1  0
 22 51  1  0
 23 52  1  0
 23 53  1  0
 24 54  1  0
 24 55  1  0
 29 56  1  0
M  END
>  <s_m_entry_id>  (10) 
21825

>  <s_m_Source_Path>  (10) 
C:\Users\vinicius\Downloads\Ligands_Ecoli

>  <s_m_Source_File>  (10) 
Ligands_Ecoli_o.sdf

>  <i_m_Source_File_Index>  (10) 
13

>  <i_f3d_flags>  (10) 
0

>  <r_lp_tautomer_probability>  (10) 
0.999999999997365

>  <r_epik_Ionization_Penalty>  (10) 
  0.0358

>  <r_epik_State_Penalty>  (10) 
  0.0299

>  <i_epik_Tot_Q>  (10) 
0

>  <s_m_job_name>  (10) 
ligs_ecFabI_ligprep_2

>  <class_value>  (10) 
0

>  <FRED Chemgauss4 score>  (10) 
-9.310489

>  <Name>  (10) 
CHEMBL70368

>  <Set>  (10) 
training

>  <HBA count>  (10) 
5

>  <HBD count>  (10) 
1

>  <ExactMolWt>  (10) 
406.1892573120007

>  <NumRotatableBounds>  (10) 
8

>  <FractionCsp3>  (10) 
0.3333333333333333

>  <TPSA>  (10) 
71.77000000000001

>  <LogP_WildmanCrippen>  (10) 
3.888700000000003

>  <General_Cluster>  (10) 
1

>  <Biological_Cluster>  (10) 
2

>  <Physicochemical_Cluster>  (10) 
3

>  <Structural_Cluster>  (10) 
7

$$$$
CHEMBL567084
     RDKit          3D

 51 54  0  0  0  0  0  0  0  0999 V2000
  110.6259   65.6592   32.2650 C   0  0  0  0  0  0  0  0  0  0  0  0
  111.4005   64.7632   33.0041 C   0  0  0  0  0  0  0  0  0  0  0  0
  109.9985   66.8274   34.2844 C   0  0  0  0  0  0  0  0  0  0  0  0
  107.6461   63.0387   42.8016 C   0  0  0  0  0  0  0  0  0  0  0  0
  108.3207   64.5399   44.4853 C   0  0  0  0  0  0  0  0  0  0  0  0
  110.7753   65.9350   35.0622 C   0  0  0  0  0  0  0  0  0  0  0  0
  108.5285   64.0192   43.2324 C   0  0  0  0  0  0  0  0  0  0  0  0
  110.9971   65.8820   36.4793 C   0  0  0  0  0  0  0  0  0  0  0  0
  106.5819   62.5806   43.6072 C   0  0  0  0  0  0  0  0  0  0  0  0
  109.9314   66.6813   32.8963 C   0  0  0  0  0  0  0  0  0  0  0  0
  111.4661   64.9133   34.4033 C   0  0  0  0  0  0  0  0  0  0  0  0
  111.8268   64.8516   36.8528 C   0  0  0  0  0  0  0  0  0  0  0  0
  106.4836   63.1473   44.8808 C   0  0  0  0  0  0  0  0  0  0  0  0
  104.6532   61.7650   46.0017 C   0  0  0  0  0  0  0  0  0  0  0  0
  109.6126   64.4858   42.3890 C   0  0  0  0  0  0  0  0  0  0  0  0
  109.6735   64.3490   41.0427 C   0  0  0  0  0  0  0  0  0  0  0  0
  110.8625   64.8441   40.2882 C   0  0  0  0  0  0  0  0  0  0  0  0
  104.5871   60.7074   44.9373 C   0  0  0  0  0  0  0  0  0  0  0  0
  104.4331   61.3122   43.5643 C   0  0  0  0  0  0  0  0  0  0  0  0
  110.3961   66.8400   37.4429 C   0  0  0  0  0  0  0  0  0  0  0  0
  110.3396   63.0380   38.6941 C   0  0  0  0  0  0  0  0  0  0  0  0
  112.2952   64.4710   38.2275 C   0  0  0  0  0  0  0  0  0  0  0  0
  107.3295   64.1322   45.3025 N   0  0  0  0  0  0  0  0  0  0  0  0
  105.7249   61.6636   43.0368 N   0  0  0  0  0  0  0  0  0  0  0  0
  105.5500   62.7930   45.8813 N   0  0  0  0  0  0  0  0  0  0  0  0
  111.1797   64.1513   39.1164 N   0  0  0  0  0  0  0  0  0  0  0  0
  103.9365   61.6647   47.0035 O   0  0  0  0  0  0  0  0  0  0  0  0
  111.5112   65.7960   40.7247 O   0  0  0  0  0  0  0  0  0  0  0  0
  109.1922   67.5328   32.1729 F   0  0  0  0  0  0  0  0  0  0  0  0
  112.3507   63.9353   35.5144 S   0  0  0  0  0  0  0  0  0  0  0  0
  110.5655   65.5539   31.1717 H   0  0  0  0  0  0  0  0  0  0  0  0
  111.9505   63.9535   32.5022 H   0  0  0  0  0  0  0  0  0  0  0  0
  109.4444   67.6407   34.7759 H   0  0  0  0  0  0  0  0  0  0  0  0
  107.7805   62.6046   41.7999 H   0  0  0  0  0  0  0  0  0  0  0  0
  108.9979   65.3305   44.8406 H   0  0  0  0  0  0  0  0  0  0  0  0
  110.4545   64.9924   42.8834 H   0  0  0  0  0  0  0  0  0  0  0  0
  108.8429   63.8708   40.5029 H   0  0  0  0  0  0  0  0  0  0  0  0
  105.5133   60.1147   44.9647 H   0  0  0  0  0  0  0  0  0  0  0  0
  103.7100   60.0738   45.1351 H   0  0  0  0  0  0  0  0  0  0  0  0
  103.9523   60.5826   42.8961 H   0  0  0  0  0  0  0  0  0  0  0  0
  103.8119   62.2173   43.6346 H   0  0  0  0  0  0  0  0  0  0  0  0
  110.6052   66.5066   38.4701 H   0  0  0  0  0  0  0  0  0  0  0  0
  110.8299   67.8386   37.2860 H   0  0  0  0  0  0  0  0  0  0  0  0
  109.3082   66.8840   37.2860 H   0  0  0  0  0  0  0  0  0  0  0  0
  109.9472   62.5180   39.5804 H   0  0  0  0  0  0  0  0  0  0  0  0
  109.5018   63.4188   38.0915 H   0  0  0  0  0  0  0  0  0  0  0  0
  110.9357   62.3368   38.0915 H   0  0  0  0  0  0  0  0  0  0  0  0
  112.9502   63.5908   38.1486 H   0  0  0  0  0  0  0  0  0  0  0  0
  112.8338   65.3304   38.6533 H   0  0  0  0  0  0  0  0  0  0  0  0
  106.0312   61.1967   42.1713 H   0  0  0  0  0  0  0  0  0  0  0  0
  105.5427   63.4396   46.6830 H   0  0  0  0  0  0  0  0  0  0  0  0
  1  2  2  0
  1 10  1  0
  2 11  1  0
  3  6  1  0
  3 10  2  0
  4  7  2  0
  4  9  1  0
  5  7  1  0
  5 23  2  0
  6  8  1  0
  6 11  2  0
  7 15  1  0
  8 12  2  0
  8 20  1  0
  9 13  2  0
  9 24  1  0
 10 29  1  0
 11 30  1  0
 12 22  1  0
 12 30  1  0
 13 23  1  0
 13 25  1  0
 14 18  1  0
 14 25  1  0
 14 27  2  0
 15 16  2  0
 16 17  1  0
 17 26  1  0
 17 28  2  0
 18 19  1  0
 19 24  1  0
 21 26  1  0
 22 26  1  0
  1 31  1  0
  2 32  1  0
  3 33  1  0
  4 34  1  0
  5 35  1  0
 15 36  1  0
 16 37  1  0
 18 38  1  0
 18 39  1  0
 19 40  1  0
 19 41  1  0
 20 42  1  0
 20 43  1  0
 20 44  1  0
 21 45  1  0
 21 46  1  0
 21 47  1  0
 22 48  1  0
 22 49  1  0
 24 50  1  0
 25 51  1  0
M  END
>  <s_m_entry_id>  (11) 
21968

>  <s_m_Source_Path>  (11) 
C:\Users\vinicius\Downloads\Ligands_Ecoli

>  <s_m_Source_File>  (11) 
Ligands_Ecoli_o.sdf

>  <i_m_Source_File_Index>  (11) 
86

>  <i_f3d_flags>  (11) 
0

>  <r_lp_tautomer_probability>  (11) 
1

>  <r_epik_Ionization_Penalty>  (11) 
  0.0006

>  <r_epik_State_Penalty>  (11) 
  0.0000

>  <i_epik_Tot_Q>  (11) 
0

>  <s_m_job_name>  (11) 
ligs_ecFabI_ligprep_2

>  <class_value>  (11) 
1

>  <FRED Chemgauss4 score>  (11) 
-13.709038

>  <Name>  (11) 
CHEMBL567084

>  <Set>  (11) 
training

>  <HBA count>  (11) 
5

>  <HBD count>  (11) 
2

>  <ExactMolWt>  (11) 
424.13692513200067

>  <NumRotatableBounds>  (11) 
6

>  <FractionCsp3>  (11) 
0.22727272727272727

>  <TPSA>  (11) 
74.33000000000001

>  <LogP_WildmanCrippen>  (11) 
4.169720000000003

>  <General_Cluster>  (11) 
1

>  <Biological_Cluster>  (11) 
1

>  <Physicochemical_Cluster>  (11) 
3

>  <Structural_Cluster>  (11) 
7

$$$$
CHEMBL567910
     RDKit          3D

 53 56  0  0  0  0  0  0  0  0999 V2000
  106.8355   68.5847   30.9649 C   0  0  0  0  0  0  0  0  0  0  0  0
  107.8807   69.3304   30.4235 C   0  0  0  0  0  0  0  0  0  0  0  0
  107.0557   67.7209   32.0439 C   0  0  0  0  0  0  0  0  0  0  0  0
  109.1759   69.2377   30.9410 C   0  0  0  0  0  0  0  0  0  0  0  0
  108.9249   66.8560   33.6447 C   0  0  0  0  0  0  0  0  0  0  0  0
  109.9902   65.5924   39.6700 C   0  0  0  0  0  0  0  0  0  0  0  0
  112.2513   65.3795   40.2875 C   0  0  0  0  0  0  0  0  0  0  0  0
  108.3532   67.6107   32.5824 C   0  0  0  0  0  0  0  0  0  0  0  0
  111.2837   65.2321   39.3242 C   0  0  0  0  0  0  0  0  0  0  0  0
  109.6757   66.0906   40.9521 C   0  0  0  0  0  0  0  0  0  0  0  0
  109.3812   68.3701   32.0196 C   0  0  0  0  0  0  0  0  0  0  0  0
  110.2640   67.1659   33.7050 C   0  0  0  0  0  0  0  0  0  0  0  0
  110.7213   66.1723   41.8724 C   0  0  0  0  0  0  0  0  0  0  0  0
  109.6014   66.9215   44.0502 C   0  0  0  0  0  0  0  0  0  0  0  0
  111.6021   64.7286   38.0017 C   0  0  0  0  0  0  0  0  0  0  0  0
  110.8450   64.9045   36.8923 C   0  0  0  0  0  0  0  0  0  0  0  0
  111.2654   64.3069   35.5907 C   0  0  0  0  0  0  0  0  0  0  0  0
  108.2386   66.4569   41.1573 C   0  0  0  0  0  0  0  0  0  0  0  0
  108.1859   66.7342   43.6131 C   0  0  0  0  0  0  0  0  0  0  0  0
  111.8308   68.6596   32.4561 C   0  0  0  0  0  0  0  0  0  0  0  0
  111.8686   64.6974   33.2327 C   0  0  0  0  0  0  0  0  0  0  0  0
  111.3274   66.6563   34.6344 C   0  0  0  0  0  0  0  0  0  0  0  0
  111.9995   65.8369   41.5311 N   0  0  0  0  0  0  0  0  0  0  0  0
  110.5297   68.0800   32.7211 N   0  0  0  0  0  0  0  0  0  0  0  0
  110.6352   66.6041   43.2138 N   0  0  0  0  0  0  0  0  0  0  0  0
  111.4845   65.2060   34.5431 N   0  0  0  0  0  0  0  0  0  0  0  0
  107.9290   67.3522   42.2963 N   0  0  0  0  0  4  0  0  0  0  0  0
  109.8261   67.3008   45.2059 O   0  0  0  0  0  0  0  0  0  0  0  0
  111.3758   63.0845   35.4859 O   0  0  0  0  0  0  0  0  0  0  0  0
  105.8253   68.6760   30.5392 H   0  0  0  0  0  0  0  0  0  0  0  0
  107.6835   70.0027   29.5755 H   0  0  0  0  0  0  0  0  0  0  0  0
  106.2260   67.1352   32.4664 H   0  0  0  0  0  0  0  0  0  0  0  0
  110.0032   69.8251   30.5161 H   0  0  0  0  0  0  0  0  0  0  0  0
  108.3919   66.1514   34.3000 H   0  0  0  0  0  0  0  0  0  0  0  0
  109.1878   65.4870   38.9250 H   0  0  0  0  0  0  0  0  0  0  0  0
  113.2866   65.1103   40.0313 H   0  0  0  0  0  0  0  0  0  0  0  0
  112.5352   64.1568   37.8905 H   0  0  0  0  0  0  0  0  0  0  0  0
  109.9160   65.4905   36.9509 H   0  0  0  0  0  0  0  0  0  0  0  0
  107.8884   66.9533   40.2403 H   0  0  0  0  0  0  0  0  0  0  0  0
  107.7330   65.5089   41.3933 H   0  0  0  0  0  0  0  0  0  0  0  0
  107.9736   65.6569   43.5477 H   0  0  0  0  0  0  0  0  0  0  0  0
  107.5338   67.2231   44.3518 H   0  0  0  0  0  0  0  0  0  0  0  0
  112.3334   68.8835   33.4086 H   0  0  0  0  0  0  0  0  0  0  0  0
  112.4389   67.9473   31.8792 H   0  0  0  0  0  0  0  0  0  0  0  0
  111.7080   69.5881   31.8792 H   0  0  0  0  0  0  0  0  0  0  0  0
  112.5273   63.8252   33.3566 H   0  0  0  0  0  0  0  0  0  0  0  0
  110.9675   64.4003   32.6762 H   0  0  0  0  0  0  0  0  0  0  0  0
  112.4009   65.4828   32.6762 H   0  0  0  0  0  0  0  0  0  0  0  0
  112.2839   67.1342   34.3760 H   0  0  0  0  0  0  0  0  0  0  0  0
  111.0257   66.9015   35.6634 H   0  0  0  0  0  0  0  0  0  0  0  0
  111.5572   66.7018   43.6625 H   0  0  0  0  0  0  0  0  0  0  0  0
  108.5099   68.1988   42.2138 H   0  0  0  0  0  0  0  0  0  0  0  0
  106.9224   67.5657   42.2511 H   0  0  0  0  0  0  0  0  0  0  0  0
  1  2  2  0
  1  3  1  0
  2  4  1  0
  3  8  2  0
  4 11  2  0
  5  8  1  0
  5 12  2  0
  6  9  2  0
  6 10  1  0
  7  9  1  0
  7 23  2  0
  8 11  1  0
  9 15  1  0
 10 13  2  0
 10 18  1  0
 11 24  1  0
 12 22  1  0
 12 24  1  0
 13 23  1  0
 13 25  1  0
 14 19  1  0
 14 25  1  0
 14 28  2  0
 15 16  2  0
 16 17  1  0
 17 26  1  0
 17 29  2  0
 18 27  1  0
 19 27  1  0
 20 24  1  0
 21 26  1  0
 22 26  1  0
  1 30  1  0
  2 31  1  0
  3 32  1  0
  4 33  1  0
  5 34  1  0
  6 35  1  0
  7 36  1  0
 15 37  1  0
 16 38  1  0
 18 39  1  0
 18 40  1  0
 19 41  1  0
 19 42  1  0
 20 43  1  0
 20 44  1  0
 20 45  1  0
 21 46  1  0
 21 47  1  0
 21 48  1  0
 22 49  1  0
 22 50  1  0
 25 51  1  0
 27 52  1  0
 27 53  1  0
M  CHG  1  27   1
M  END
>  <s_m_entry_id>  (12) 
21984

>  <s_m_Source_Path>  (12) 
C:\Users\vinicius\Downloads\Ligands_Ecoli

>  <s_m_Source_File>  (12) 
Ligands_Ecoli_o.sdf

>  <i_m_Source_File_Index>  (12) 
94

>  <i_f3d_flags>  (12) 
0

>  <r_epik_Ionization_Penalty>  (12) 
  0.3574

>  <r_epik_State_Penalty>  (12) 
  0.3539

>  <i_epik_Tot_Q>  (12) 
1

>  <s_m_job_name>  (12) 
ligs_ecFabI_ligprep_2

>  <class_value>  (12) 
1

>  <FRED Chemgauss4 score>  (12) 
-16.016594

>  <Name>  (12) 
CHEMBL567910

>  <Set>  (12) 
training

>  <HBA count>  (12) 
4

>  <HBD count>  (12) 
2

>  <ExactMolWt>  (12) 
390.19245142809075

>  <NumRotatableBounds>  (12) 
6

>  <FractionCsp3>  (12) 
0.22727272727272727

>  <TPSA>  (12) 
83.84

>  <LogP_WildmanCrippen>  (12) 
1.2606000000000004

>  <General_Cluster>  (12) 
1

>  <Biological_Cluster>  (12) 
1

>  <Physicochemical_Cluster>  (12) 
8

>  <Structural_Cluster>  (12) 
7

$$$$
CHEMBL2178316
     RDKit          3D

 26 27  0  0  0  0  0  0  0  0999 V2000
  112.0172   66.0307   38.6403 C   0  0  0  0  0  0  0  0  0  0  0  0
  110.6660   67.1359   32.9032 C   0  0  0  0  0  0  0  0  0  0  0  0
  111.6019   66.4188   33.6485 C   0  0  0  0  0  0  0  0  0  0  0  0
  112.1098   66.0034   37.2532 C   0  0  0  0  0  0  0  0  0  0  0  0
  111.8319   64.8451   39.3426 C   0  0  0  0  0  0  0  0  0  0  0  0
  108.8835   65.8434   33.8978 C   0  0  0  0  0  0  0  0  0  0  0  0
  109.3068   66.8483   33.0279 C   0  0  0  0  0  0  0  0  0  0  0  0
  111.1786   65.4139   34.5184 C   0  0  0  0  0  0  0  0  0  0  0  0
  109.8194   65.1262   34.6431 C   0  0  0  0  0  0  0  0  0  0  0  0
  112.0116   64.7746   36.6207 C   0  0  0  0  0  0  0  0  0  0  0  0
  111.7459   63.6681   38.6165 C   0  0  0  0  0  0  0  0  0  0  0  0
  108.3059   67.6167   32.2331 C   0  0  0  0  0  0  0  0  0  0  0  0
  111.8314   63.6020   37.2689 N   0  0  0  0  0  0  0  0  0  0  0  0
  109.3941   64.1466   35.4888 O   0  0  0  0  0  0  0  0  0  0  0  0
  112.1028   64.7207   35.2406 O   0  0  0  0  0  0  0  0  0  0  0  0
  111.5686   62.5162   39.2820 F   0  0  0  0  0  0  0  0  0  0  0  0
  112.0903   66.9865   39.1799 H   0  0  0  0  0  0  0  0  0  0  0  0
  110.9998   67.9282   32.2171 H   0  0  0  0  0  0  0  0  0  0  0  0
  112.6737   66.6457   33.5503 H   0  0  0  0  0  0  0  0  0  0  0  0
  112.2564   66.9283   36.6761 H   0  0  0  0  0  0  0  0  0  0  0  0
  111.7560   64.8416   40.4400 H   0  0  0  0  0  0  0  0  0  0  0  0
  107.8116   65.6165   33.9961 H   0  0  0  0  0  0  0  0  0  0  0  0
  107.6214   68.1422   32.9152 H   0  0  0  0  0  0  0  0  0  0  0  0
  108.8259   68.3498   31.5989 H   0  0  0  0  0  0  0  0  0  0  0  0
  107.7321   66.9249   31.5989 H   0  0  0  0  0  0  0  0  0  0  0  0
  110.0515   63.6327   36.0215 H   0  0  0  0  0  0  0  0  0  0  0  0
  1  4  2  0
  1  5  1  0
  2  3  2  0
  2  7  1  0
  3  8  1  0
  4 10  1  0
  5 11  2  0
  6  7  2  0
  6  9  1  0
  7 12  1  0
  8  9  2  0
  8 15  1  0
  9 14  1  0
 10 13  2  0
 10 15  1  0
 11 13  1  0
 11 16  1  0
  1 17  1  0
  2 18  1  0
  3 19  1  0
  4 20  1  0
  5 21  1  0
  6 22  1  0
 12 23  1  0
 12 24  1  0
 12 25  1  0
 14 26  1  0
M  END
>  <s_m_entry_id>  (13) 
22039

>  <s_m_Source_Path>  (13) 
C:\Users\vinicius\Downloads\Ligands_Ecoli

>  <s_m_Source_File>  (13) 
Ligands_Ecoli_o.sdf

>  <i_m_Source_File_Index>  (13) 
123

>  <i_f3d_flags>  (13) 
0

>  <r_lp_tautomer_probability>  (13) 
1

>  <r_epik_Ionization_Penalty>  (13) 
  0.0020

>  <r_epik_State_Penalty>  (13) 
  0.0014

>  <i_epik_Tot_Q>  (13) 
0

>  <s_m_job_name>  (13) 
ligs_ecFabI_ligprep_2

>  <class_value>  (13) 
0

>  <FRED Chemgauss4 score>  (13) 
-14.222851

>  <Name>  (13) 
CHEMBL2178316

>  <Set>  (13) 
training

>  <HBA count>  (13) 
3

>  <HBD count>  (13) 
1

>  <ExactMolWt>  (13) 
219.06955678

>  <NumRotatableBounds>  (13) 
4

>  <FractionCsp3>  (13) 
0.08333333333333333

>  <TPSA>  (13) 
42.35000000000001

>  <LogP_WildmanCrippen>  (13) 
3.0270200000000016

>  <General_Cluster>  (13) 
2

>  <Biological_Cluster>  (13) 
2

>  <Physicochemical_Cluster>  (13) 
6

>  <Structural_Cluster>  (13) 
3

$$$$
CHEMBL297453
     RDKit          3D

 51 54  0  0  1  0  0  0  0  0999 V2000
  106.2052   67.8178   42.0199 C   0  0  0  0  0  0  0  0  0  0  0  0
  106.3775   65.4197   42.2570 C   0  0  0  0  0  0  0  0  0  0  0  0
  109.5567   63.5412   43.9152 C   0  0  0  0  0  0  0  0  0  0  0  0
  108.3653   62.5885   42.0418 C   0  0  0  0  0  0  0  0  0  0  0  0
  110.7556   63.7454   37.9907 C   0  0  0  0  0  0  0  0  0  0  0  0
  112.1250   65.5503   37.1590 C   0  0  0  0  0  0  0  0  0  0  0  0
  106.9825   66.6757   42.2124 C   0  0  0  0  0  0  0  0  0  0  0  0
  109.4054   63.3739   42.5387 C   0  0  0  0  0  0  0  0  0  0  0  0
  111.4342   65.5322   39.4867 C   0  0  0  0  0  0  0  0  0  0  0  0
  110.7661   64.3216   39.2636 C   0  0  0  0  0  0  0  0  0  0  0  0
  104.8229   67.7039   41.8721 C   0  0  0  0  0  0  0  0  0  0  0  0
  104.9951   65.3057   42.1091 C   0  0  0  0  0  0  0  0  0  0  0  0
  108.6679   62.9231   44.7948 C   0  0  0  0  0  0  0  0  0  0  0  0
  107.4765   61.9703   42.9213 C   0  0  0  0  0  0  0  0  0  0  0  0
  111.4371   64.3587   36.9406 C   0  0  0  0  0  0  0  0  0  0  0  0
  112.1249   66.1343   38.4262 C   0  0  0  0  0  0  0  0  0  0  0  0
  104.2178   66.4479   41.9167 C   0  0  0  0  0  0  0  0  0  0  0  0
  107.6278   62.1377   44.2978 C   0  0  0  0  0  0  0  0  0  0  0  0
  108.4537   66.7963   42.3727 C   0  0  0  0  0  0  0  0  0  0  0  0
  111.4405   66.1817   40.8441 C   0  0  0  0  0  0  0  0  0  0  0  0
  110.3720   64.0465   41.5817 C   0  0  2  0  0  0  0  0  0  0  0  0
  110.3731   65.5716   41.7501 C   0  0  2  0  0  0  0  0  0  0  0  0
  108.9795   67.4358   43.2704 O   0  0  0  0  0  0  0  0  0  0  0  0
  110.0656   63.6533   40.2342 O   0  0  0  0  0  0  0  0  0  0  0  0
  104.0752   68.8273   41.6854 O   0  0  0  0  0  0  0  0  0  0  0  0
  104.4166   64.0731   42.1553 O   0  0  0  0  0  0  0  0  0  0  0  0
  108.8268   63.0945   46.1369 O   0  0  0  0  0  0  0  0  0  0  0  0
  106.4648   61.2060   42.4229 O   0  0  0  0  0  0  0  0  0  0  0  0
  111.4325   63.7921   35.7032 O   0  0  0  0  0  0  0  0  0  0  0  0
  112.8088   67.3006   38.6078 O   0  0  0  0  0  0  0  0  0  0  0  0
  102.8668   66.3370   41.7709 O   0  0  0  0  0  0  0  0  0  0  0  0
  106.7591   61.5335   45.1576 O   0  0  0  0  0  0  0  0  0  0  0  0
  109.0962   66.1046   41.3960 O   0  0  0  0  0  0  0  0  0  0  0  0
  106.6823   68.8083   41.9847 H   0  0  0  0  0  0  0  0  0  0  0  0
  106.9905   64.5190   42.4088 H   0  0  0  0  0  0  0  0  0  0  0  0
  110.3769   64.1606   44.3071 H   0  0  0  0  0  0  0  0  0  0  0  0
  108.2460   62.4566   40.9563 H   0  0  0  0  0  0  0  0  0  0  0  0
  110.2090   62.8068   37.8170 H   0  0  0  0  0  0  0  0  0  0  0  0
  112.6684   66.0309   36.3321 H   0  0  0  0  0  0  0  0  0  0  0  0
  112.4285   66.0389   41.3062 H   0  0  0  0  0  0  0  0  0  0  0  0
  111.2231   67.2528   40.7201 H   0  0  0  0  0  0  0  0  0  0  0  0
  111.3932   63.7135   41.8190 H   0  0  0  0  0  0  0  0  0  0  0  0
  110.5894   65.8161   42.8006 H   0  0  0  0  0  0  0  0  0  0  0  0
  103.0934   68.7565   41.5795 H   0  0  0  0  0  0  0  0  0  0  0  0
  103.4363   63.9822   42.0513 H   0  0  0  0  0  0  0  0  0  0  0  0
  108.2010   62.6598   46.7690 H   0  0  0  0  0  0  0  0  0  0  0  0
  105.8290   60.7633   43.0393 H   0  0  0  0  0  0  0  0  0  0  0  0
  111.9165   64.2277   34.9575 H   0  0  0  0  0  0  0  0  0  0  0  0
  112.8225   67.7329   39.4983 H   0  0  0  0  0  0  0  0  0  0  0  0
  102.4370   65.4457   41.8025 H   0  0  0  0  0  0  0  0  0  0  0  0
  106.0209   60.9761   44.8049 H   0  0  0  0  0  0  0  0  0  0  0  0
  1  7  2  0
  1 11  1  0
  2  7  1  0
  2 12  2  0
  3  8  2  0
  3 13  1  0
  4  8  1  0
  4 14  2  0
  5 10  2  0
  5 15  1  0
  6 15  2  0
  6 16  1  0
  7 19  1  0
  8 21  1  0
  9 10  1  0
  9 16  2  0
  9 20  1  0
 10 24  1  0
 11 17  2  0
 11 25  1  0
 12 17  1  0
 12 26  1  0
 13 18  2  0
 13 27  1  0
 14 18  1  0
 14 28  1  0
 15 29  1  0
 16 30  1  0
 17 31  1  0
 18 32  1  0
 19 23  2  0
 19 33  1  0
 20 22  1  0
 21 22  1  0
 21 24  1  0
 22 33  1  0
  1 34  1  0
  2 35  1  0
  3 36  1  0
  4 37  1  0
  5 38  1  0
  6 39  1  0
 20 40  1  0
 20 41  1  0
 21 42  1  1
 22 43  1  1
 25 44  1  0
 26 45  1  0
 27 46  1  0
 28 47  1  0
 29 48  1  0
 30 49  1  0
 31 50  1  0
 32 51  1  0
M  END
>  <s_m_entry_id>  (14) 
21804

>  <s_m_Source_Path>  (14) 
C:\Users\vinicius\Downloads\Ligands_Ecoli

>  <s_m_Source_File>  (14) 
Ligands_Ecoli_o.sdf

>  <i_m_Source_File_Index>  (14) 
2

>  <i_f3d_flags>  (14) 
0

>  <r_lp_tautomer_probability>  (14) 
0.999999999957461

>  <r_epik_Ionization_Penalty>  (14) 
  0.1925

>  <r_epik_State_Penalty>  (14) 
  0.1483

>  <i_epik_Tot_Q>  (14) 
0

>  <s_m_job_name>  (14) 
ligs_ecFabI_ligprep_2

>  <class_value>  (14) 
0

>  <FRED Chemgauss4 score>  (14) 
-11.151739

>  <Name>  (14) 
CHEMBL297453

>  <Set>  (14) 
training

>  <HBA count>  (14) 
11

>  <HBD count>  (14) 
8

>  <ExactMolWt>  (14) 
458.0849113960002

>  <NumRotatableBounds>  (14) 
11

>  <FractionCsp3>  (14) 
0.13636363636363635

>  <TPSA>  (14) 
197.36999999999998

>  <LogP_WildmanCrippen>  (14) 
2.233200000000004

>  <General_Cluster>  (14) 
5

>  <Biological_Cluster>  (14) 
2

>  <Physicochemical_Cluster>  (14) 
1

>  <Structural_Cluster>  (14) 
2

$$$$
CHEMBL307960
     RDKit          3D

 51 55  0  0  0  0  0  0  0  0999 V2000
  108.6083   69.0363   42.9610 C   0  0  0  0  0  0  0  0  0  0  0  0
  108.5112   68.1172   44.0035 C   0  0  0  0  0  0  0  0  0  0  0  0
  109.2516   68.6979   41.7652 C   0  0  0  0  0  0  0  0  0  0  0  0
  109.9935   65.0857   36.3595 C   0  0  0  0  0  0  0  0  0  0  0  0
  112.1442   64.5637   35.3903 C   0  0  0  0  0  0  0  0  0  0  0  0
  108.4730   63.1466   44.3629 C   0  0  0  0  0  0  0  0  0  0  0  0
  108.5599   62.9027   41.9608 C   0  0  0  0  0  0  0  0  0  0  0  0
  109.0518   66.8337   43.8853 C   0  0  0  0  0  0  0  0  0  0  0  0
  107.2723   62.4374   44.3915 C   0  0  0  0  0  0  0  0  0  0  0  0
  107.3591   62.1934   41.9894 C   0  0  0  0  0  0  0  0  0  0  0  0
  109.5699   65.6088   35.1378 C   0  0  0  0  0  0  0  0  0  0  0  0
  111.7206   65.0868   34.1686 C   0  0  0  0  0  0  0  0  0  0  0  0
  109.8058   67.4100   41.6215 C   0  0  0  0  0  0  0  0  0  0  0  0
  111.2807   64.5632   36.4858 C   0  0  0  0  0  0  0  0  0  0  0  0
  110.5083   66.7384   40.5843 C   0  0  0  0  0  0  0  0  0  0  0  0
  109.1168   63.3793   43.1475 C   0  0  0  0  0  0  0  0  0  0  0  0
  109.6924   66.5070   42.6846 C   0  0  0  0  0  0  0  0  0  0  0  0
  106.7154   61.9607   43.2048 C   0  0  0  0  0  0  0  0  0  0  0  0
  110.4334   65.6094   34.0424 C   0  0  0  0  0  0  0  0  0  0  0  0
  110.7956   65.4658   41.0306 C   0  0  0  0  0  0  0  0  0  0  0  0
  111.7275   64.0111   37.7738 C   0  0  0  0  0  0  0  0  0  0  0  0
  110.9103   67.1898   39.2248 C   0  0  0  0  0  0  0  0  0  0  0  0
  111.5261   64.4074   40.2858 C   0  0  0  0  0  0  0  0  0  0  0  0
  112.0411   66.2941   38.6906 C   0  0  0  0  0  0  0  0  0  0  0  0
  110.4125   64.1440   43.1165 C   0  0  0  0  0  0  0  0  0  0  0  0
  110.3048   65.3332   42.2978 N   0  0  0  0  0  0  0  0  0  0  0  0
  111.7421   64.8593   38.8874 N   0  0  0  0  0  0  0  0  0  0  0  0
  112.0536   62.8249   37.7750 O   0  0  0  0  0  0  0  0  0  0  0  0
  105.5444   61.2676   43.2331 O   0  0  0  0  0  0  0  0  0  0  0  0
  109.9103   66.2535   32.5350 Cl  0  0  0  0  0  0  0  0  0  0  0  0
  108.1741   70.0400   43.0793 H   0  0  0  0  0  0  0  0  0  0  0  0
  108.0011   68.4062   44.9342 H   0  0  0  0  0  0  0  0  0  0  0  0
  109.3239   69.4289   40.9465 H   0  0  0  0  0  0  0  0  0  0  0  0
  109.3125   65.0852   37.2234 H   0  0  0  0  0  0  0  0  0  0  0  0
  113.1592   64.1516   35.4899 H   0  0  0  0  0  0  0  0  0  0  0  0
  108.9122   63.5224   45.2988 H   0  0  0  0  0  0  0  0  0  0  0  0
  109.0676   63.0862   41.0024 H   0  0  0  0  0  0  0  0  0  0  0  0
  108.9764   66.1061   44.7069 H   0  0  0  0  0  0  0  0  0  0  0  0
  106.7645   62.2540   45.3499 H   0  0  0  0  0  0  0  0  0  0  0  0
  106.9198   61.8176   41.0535 H   0  0  0  0  0  0  0  0  0  0  0  0
  108.5549   66.0208   35.0382 H   0  0  0  0  0  0  0  0  0  0  0  0
  112.4015   65.0872   33.3047 H   0  0  0  0  0  0  0  0  0  0  0  0
  110.0449   67.1274   38.5487 H   0  0  0  0  0  0  0  0  0  0  0  0
  111.2654   68.2296   39.2779 H   0  0  0  0  0  0  0  0  0  0  0  0
  112.4975   64.2216   40.7673 H   0  0  0  0  0  0  0  0  0  0  0  0
  110.9374   63.4782   40.2886 H   0  0  0  0  0  0  0  0  0  0  0  0
  112.1708   66.4869   37.6154 H   0  0  0  0  0  0  0  0  0  0  0  0
  112.9592   66.5324   39.2476 H   0  0  0  0  0  0  0  0  0  0  0  0
  110.6788   64.4387   44.1423 H   0  0  0  0  0  0  0  0  0  0  0  0
  111.1874   63.4945   42.6832 H   0  0  0  0  0  0  0  0  0  0  0  0
  105.1490   60.9292   42.3909 H   0  0  0  0  0  0  0  0  0  0  0  0
  1  2  2  0
  1  3  1  0
  2  8  1  0
  3 13  2  0
  4 11  2  0
  4 14  1  0
  5 12  1  0
  5 14  2  0
  6  9  2  0
  6 16  1  0
  7 10  1  0
  7 16  2  0
  8 17  2  0
  9 18  1  0
 10 18  2  0
 11 19  1  0
 12 19  2  0
 13 15  1  0
 13 17  1  0
 14 21  1  0
 15 20  2  0
 15 22  1  0
 16 25  1  0
 17 26  1  0
 18 29  1  0
 19 30  1  0
 20 23  1  0
 20 26  1  0
 21 27  1  0
 21 28  2  0
 22 24  1  0
 23 27  1  0
 24 27  1  0
 25 26  1  0
  1 31  1  0
  2 32  1  0
  3 33  1  0
  4 34  1  0
  5 35  1  0
  6 36  1  0
  7 37  1  0
  8 38  1  0
  9 39  1  0
 10 40  1  0
 11 41  1  0
 12 42  1  0
 22 43  1  0
 22 44  1  0
 23 45  1  0
 23 46  1  0
 24 47  1  0
 24 48  1  0
 25 49  1  0
 25 50  1  0
 29 51  1  0
M  END
>  <s_m_entry_id>  (15) 
21830

>  <s_m_Source_Path>  (15) 
C:\Users\vinicius\Downloads\Ligands_Ecoli

>  <s_m_Source_File>  (15) 
Ligands_Ecoli_o.sdf

>  <i_m_Source_File_Index>  (15) 
16

>  <i_f3d_flags>  (15) 
0

>  <r_lp_tautomer_probability>  (15) 
0.999999999997365

>  <r_epik_Ionization_Penalty>  (15) 
  0.0024

>  <r_epik_State_Penalty>  (15) 
  0.0016

>  <i_epik_Tot_Q>  (15) 
0

>  <s_m_job_name>  (15) 
ligs_ecFabI_ligprep_2

>  <class_value>  (15) 
0

>  <FRED Chemgauss4 score>  (15) 
-13.892457

>  <Name>  (15) 
CHEMBL307960

>  <Set>  (15) 
training

>  <HBA count>  (15) 
3

>  <HBD count>  (15) 
1

>  <ExactMolWt>  (15) 
416.1291555920006

>  <NumRotatableBounds>  (15) 
4

>  <FractionCsp3>  (15) 
0.16

>  <TPSA>  (15) 
45.47

>  <LogP_WildmanCrippen>  (15) 
5.247100000000004

>  <General_Cluster>  (15) 
1

>  <Biological_Cluster>  (15) 
2

>  <Physicochemical_Cluster>  (15) 
2

>  <Structural_Cluster>  (15) 
7

$$$$
CHEMBL393210
     RDKit          3D

 45 48  0  0  0  0  0  0  0  0999 V2000
  106.4714   67.1279   46.1989 C   0  0  0  0  0  0  0  0  0  0  0  0
  108.6124   68.1285   31.8133 C   0  0  0  0  0  0  0  0  0  0  0  0
  106.6164   65.7896   46.5642 C   0  0  0  0  0  0  0  0  0  0  0  0
  106.7771   67.5333   44.8997 C   0  0  0  0  0  0  0  0  0  0  0  0
  109.5594   67.2025   31.3761 C   0  0  0  0  0  0  0  0  0  0  0  0
  108.3235   68.2416   33.1733 C   0  0  0  0  0  0  0  0  0  0  0  0
  107.0671   64.8566   45.6304 C   0  0  0  0  0  0  0  0  0  0  0  0
  107.2279   66.6003   43.9659 C   0  0  0  0  0  0  0  0  0  0  0  0
  110.2175   66.3894   32.2988 C   0  0  0  0  0  0  0  0  0  0  0  0
  108.9817   67.4285   34.0960 C   0  0  0  0  0  0  0  0  0  0  0  0
  111.1018   64.3826   34.4162 C   0  0  0  0  0  0  0  0  0  0  0  0
  107.4615   62.9752   43.4048 C   0  0  0  0  0  0  0  0  0  0  0  0
  107.3729   65.2620   44.3312 C   0  0  0  0  0  0  0  0  0  0  0  0
  109.9287   66.5024   33.6588 C   0  0  0  0  0  0  0  0  0  0  0  0
  107.8372   64.3017   43.3696 C   0  0  0  0  0  0  0  0  0  0  0  0
  110.6241   65.6441   34.6338 C   0  0  0  0  0  0  0  0  0  0  0  0
  111.5557   64.9329   36.5118 C   0  0  0  0  0  0  0  0  0  0  0  0
  108.9579   63.5951   41.6219 C   0  0  0  0  0  0  0  0  0  0  0  0
  110.5134   64.5386   39.8695 C   0  0  0  0  0  0  0  0  0  0  0  0
  112.0514   64.8757   37.9278 C   0  0  0  0  0  0  0  0  0  0  0  0
  108.6956   64.6589   42.3481 N   0  0  0  0  0  0  0  0  0  0  0  0
  111.6735   63.9672   35.5946 N   0  0  0  0  0  0  0  0  0  0  0  0
  110.9185   65.9589   35.9385 N   0  0  0  0  0  4  0  0  0  0  0  0
  109.7618   63.5141   40.5159 N   0  0  0  0  0  0  0  0  0  0  0  0
  111.2114   64.0470   38.7616 N   0  0  0  0  0  0  0  0  0  0  0  0
  110.5581   65.7143   40.2236 O   0  0  0  0  0  0  0  0  0  0  0  0
  108.2057   62.1319   42.1101 S   0  0  0  0  0  0  0  0  0  0  0  0
  106.1160   67.8636   46.9354 H   0  0  0  0  0  0  0  0  0  0  0  0
  108.0933   68.7696   31.0856 H   0  0  0  0  0  0  0  0  0  0  0  0
  106.3753   65.4699   47.5887 H   0  0  0  0  0  0  0  0  0  0  0  0
  106.6627   68.5887   44.6116 H   0  0  0  0  0  0  0  0  0  0  0  0
  109.7873   67.1134   30.3037 H   0  0  0  0  0  0  0  0  0  0  0  0
  107.5767   68.9719   33.5181 H   0  0  0  0  0  0  0  0  0  0  0  0
  107.1814   63.8012   45.9185 H   0  0  0  0  0  0  0  0  0  0  0  0
  107.4691   66.9200   42.9414 H   0  0  0  0  0  0  0  0  0  0  0  0
  110.9643   65.6590   31.9540 H   0  0  0  0  0  0  0  0  0  0  0  0
  108.7539   67.5176   35.1685 H   0  0  0  0  0  0  0  0  0  0  0  0
  111.0405   63.8102   33.4789 H   0  0  0  0  0  0  0  0  0  0  0  0
  106.7875   62.5266   44.1495 H   0  0  0  0  0  0  0  0  0  0  0  0
  113.0715   64.4641   37.9307 H   0  0  0  0  0  0  0  0  0  0  0  0
  112.0337   65.8971   38.3358 H   0  0  0  0  0  0  0  0  0  0  0  0
  112.1232   63.0533   35.7477 H   0  0  0  0  0  0  0  0  0  0  0  0
  110.6845   66.8479   36.4030 H   0  0  0  0  0  0  0  0  0  0  0  0
  109.8336   62.5789   40.0902 H   0  0  0  0  0  0  0  0  0  0  0  0
  111.1224   63.0475   38.5293 H   0  0  0  0  0  0  0  0  0  0  0  0
  1  3  2  0
  1  4  1  0
  2  5  2  0
  2  6  1  0
  3  7  1  0
  4  8  2  0
  5  9  1  0
  6 10  2  0
  7 13  2  0
  8 13  1  0
  9 14  2  0
 10 14  1  0
 11 16  2  0
 11 22  1  0
 12 15  2  0
 12 27  1  0
 13 15  1  0
 14 16  1  0
 15 21  1  0
 16 23  1  0
 17 20  1  0
 17 22  1  0
 17 23  2  0
 18 21  2  0
 18 24  1  0
 18 27  1  0
 19 24  1  0
 19 25  1  0
 19 26  2  0
 20 25  1  0
  1 28  1  0
  2 29  1  0
  3 30  1  0
  4 31  1  0
  5 32  1  0
  6 33  1  0
  7 34  1  0
  8 35  1  0
  9 36  1  0
 10 37  1  0
 11 38  1  0
 12 39  1  0
 20 40  1  0
 20 41  1  0
 22 42  1  0
 23 43  1  0
 24 44  1  0
 25 45  1  0
M  CHG  1  23   1
M  END
>  <s_m_entry_id>  (16) 
21916

>  <s_m_Source_Path>  (16) 
C:\Users\vinicius\Downloads\Ligands_Ecoli

>  <s_m_Source_File>  (16) 
Ligands_Ecoli_o.sdf

>  <i_m_Source_File_Index>  (16) 
61

>  <i_f3d_flags>  (16) 
0

>  <r_lp_tautomer_probability>  (16) 
0.999000488399163

>  <r_epik_Ionization_Penalty>  (16) 
  2.2420

>  <r_epik_State_Penalty>  (16) 
  1.5485

>  <i_epik_Tot_Q>  (16) 
1

>  <s_m_job_name>  (16) 
ligs_ecFabI_ligprep_2

>  <class_value>  (16) 
0

>  <FRED Chemgauss4 score>  (16) 
-14.576815

>  <Name>  (16) 
CHEMBL393210

>  <Set>  (16) 
training

>  <HBA count>  (16) 
3

>  <HBD count>  (16) 
3

>  <ExactMolWt>  (16) 
376.1226576160906

>  <NumRotatableBounds>  (16) 
5

>  <FractionCsp3>  (16) 
0.05

>  <TPSA>  (16) 
83.94999999999999

>  <LogP_WildmanCrippen>  (16) 
3.9410000000000007

>  <General_Cluster>  (16) 
3

>  <Biological_Cluster>  (16) 
2

>  <Physicochemical_Cluster>  (16) 
9

>  <Structural_Cluster>  (16) 
4

$$$$
CHEMBL307563
     RDKit          3D

 52 56  0  0  0  0  0  0  0  0999 V2000
  108.9134   69.0243   42.9699 C   0  0  0  0  0  0  0  0  0  0  0  0
  108.8696   68.1169   44.0262 C   0  0  0  0  0  0  0  0  0  0  0  0
  109.3025   65.5070   35.1370 C   0  0  0  0  0  0  0  0  0  0  0  0
  109.4711   68.6635   41.7382 C   0  0  0  0  0  0  0  0  0  0  0  0
  109.7962   64.9880   36.3338 C   0  0  0  0  0  0  0  0  0  0  0  0
  108.7717   63.1514   44.4398 C   0  0  0  0  0  0  0  0  0  0  0  0
  108.6967   62.8833   42.0399 C   0  0  0  0  0  0  0  0  0  0  0  0
  109.3796   66.8232   43.8865 C   0  0  0  0  0  0  0  0  0  0  0  0
  110.0923   65.4822   33.9875 C   0  0  0  0  0  0  0  0  0  0  0  0
  107.5637   62.4635   44.5544 C   0  0  0  0  0  0  0  0  0  0  0  0
  107.4887   62.1954   42.1545 C   0  0  0  0  0  0  0  0  0  0  0  0
  111.8698   64.4196   35.2319 C   0  0  0  0  0  0  0  0  0  0  0  0
  109.9931   67.3649   41.5722 C   0  0  0  0  0  0  0  0  0  0  0  0
  111.0799   64.4444   36.3813 C   0  0  0  0  0  0  0  0  0  0  0  0
  110.6146   66.6714   40.4984 C   0  0  0  0  0  0  0  0  0  0  0  0
  109.3382   63.3614   43.1825 C   0  0  0  0  0  0  0  0  0  0  0  0
  109.9346   66.4740   42.6499 C   0  0  0  0  0  0  0  0  0  0  0  0
  106.9222   61.9854   43.4118 C   0  0  0  0  0  0  0  0  0  0  0  0
  111.3760   64.9385   34.0350 C   0  0  0  0  0  0  0  0  0  0  0  0
  110.9092   65.3982   40.9383 C   0  0  0  0  0  0  0  0  0  0  0  0
  111.6010   63.8968   37.6431 C   0  0  0  0  0  0  0  0  0  0  0  0
  110.9341   67.1028   39.1108 C   0  0  0  0  0  0  0  0  0  0  0  0
  111.5715   64.3203   40.1586 C   0  0  0  0  0  0  0  0  0  0  0  0
  112.0123   66.1826   38.5132 C   0  0  0  0  0  0  0  0  0  0  0  0
  110.6417   64.1030   43.0587 C   0  0  0  0  0  0  0  0  0  0  0  0
  110.5005   65.2862   42.2363 N   0  0  0  0  0  0  0  0  0  0  0  0
  111.7028   64.7551   38.7444 N   0  0  0  0  0  0  0  0  0  0  0  0
  111.9065   62.7051   37.6355 O   0  0  0  0  0  0  0  0  0  0  0  0
  105.7441   61.3131   43.5239 O   0  0  0  0  0  0  0  0  0  0  0  0
  112.1468   64.9142   32.9136 O   0  0  0  0  0  0  0  0  0  0  0  0
  108.5047   70.0365   43.1057 H   0  0  0  0  0  0  0  0  0  0  0  0
  108.4266   68.4235   44.9852 H   0  0  0  0  0  0  0  0  0  0  0  0
  108.2902   65.9359   35.0996 H   0  0  0  0  0  0  0  0  0  0  0  0
  109.5017   69.3854   40.9088 H   0  0  0  0  0  0  0  0  0  0  0  0
  109.1732   65.0074   37.2402 H   0  0  0  0  0  0  0  0  0  0  0  0
  109.2776   63.5283   45.3409 H   0  0  0  0  0  0  0  0  0  0  0  0
  109.1435   63.0488   41.0484 H   0  0  0  0  0  0  0  0  0  0  0  0
  109.3460   66.1049   44.7189 H   0  0  0  0  0  0  0  0  0  0  0  0
  109.7028   65.8914   33.0436 H   0  0  0  0  0  0  0  0  0  0  0  0
  107.1169   62.2980   45.5459 H   0  0  0  0  0  0  0  0  0  0  0  0
  106.9828   61.8185   41.2534 H   0  0  0  0  0  0  0  0  0  0  0  0
  112.8821   63.9908   35.2694 H   0  0  0  0  0  0  0  0  0  0  0  0
  110.0253   67.0490   38.4934 H   0  0  0  0  0  0  0  0  0  0  0  0
  111.3093   68.1367   39.1296 H   0  0  0  0  0  0  0  0  0  0  0  0
  112.5692   64.1223   40.5774 H   0  0  0  0  0  0  0  0  0  0  0  0
  110.9688   63.4015   40.2098 H   0  0  0  0  0  0  0  0  0  0  0  0
  112.0743   66.3630   37.4299 H   0  0  0  0  0  0  0  0  0  0  0  0
  112.9689   66.4102   39.0062 H   0  0  0  0  0  0  0  0  0  0  0  0
  110.9796   64.4026   44.0617 H   0  0  0  0  0  0  0  0  0  0  0  0
  111.3755   63.4361   42.5825 H   0  0  0  0  0  0  0  0  0  0  0  0
  105.2887   60.9737   42.7130 H   0  0  0  0  0  0  0  0  0  0  0  0
  113.0579   64.5283   32.9474 H   0  0  0  0  0  0  0  0  0  0  0  0
  1  2  2  0
  1  4  1  0
  2  8  1  0
  3  5  2  0
  3  9  1  0
  4 13  2  0
  5 14  1  0
  6 10  2  0
  6 16  1  0
  7 11  1  0
  7 16  2  0
  8 17  2  0
  9 19  2  0
 10 18  1  0
 11 18  2  0
 12 14  2  0
 12 19  1  0
 13 15  1  0
 13 17  1  0
 14 21  1  0
 15 20  2  0
 15 22  1  0
 16 25  1  0
 17 26  1  0
 18 29  1  0
 19 30  1  0
 20 23  1  0
 20 26  1  0
 21 27  1  0
 21 28  2  0
 22 24  1  0
 23 27  1  0
 24 27  1  0
 25 26  1  0
  1 31  1  0
  2 32  1  0
  3 33  1  0
  4 34  1  0
  5 35  1  0
  6 36  1  0
  7 37  1  0
  8 38  1  0
  9 39  1  0
 10 40  1  0
 11 41  1  0
 12 42  1  0
 22 43  1  0
 22 44  1  0
 23 45  1  0
 23 46  1  0
 24 47  1  0
 24 48  1  0
 25 49  1  0
 25 50  1  0
 29 51  1  0
 30 52  1  0
M  END
>  <s_m_entry_id>  (17) 
21856

>  <s_m_Source_Path>  (17) 
C:\Users\vinicius\Downloads\Ligands_Ecoli

>  <s_m_Source_File>  (17) 
Ligands_Ecoli_o.sdf

>  <i_m_Source_File_Index>  (17) 
32

>  <i_f3d_flags>  (17) 
0

>  <r_lp_tautomer_probability>  (17) 
0.99999999999473

>  <r_epik_Ionization_Penalty>  (17) 
  0.0123

>  <r_epik_State_Penalty>  (17) 
  0.0076

>  <i_epik_Tot_Q>  (17) 
0

>  <s_m_job_name>  (17) 
ligs_ecFabI_ligprep_2

>  <class_value>  (17) 
0

>  <FRED Chemgauss4 score>  (17) 
-13.432348

>  <Name>  (17) 
CHEMBL307563

>  <Set>  (17) 
training

>  <HBA count>  (17) 
4

>  <HBD count>  (17) 
2

>  <ExactMolWt>  (17) 
398.1630425640006

>  <NumRotatableBounds>  (17) 
5

>  <FractionCsp3>  (17) 
0.16

>  <TPSA>  (17) 
65.7

>  <LogP_WildmanCrippen>  (17) 
4.299300000000004

>  <General_Cluster>  (17) 
1

>  <Biological_Cluster>  (17) 
2

>  <Physicochemical_Cluster>  (17) 
3

>  <Structural_Cluster>  (17) 
7

$$$$
CHEMBL237638
     RDKit          3D

 45 48  0  0  0  0  0  0  0  0999 V2000
  108.7548   68.4618   32.1227 C   0  0  0  0  0  0  0  0  0  0  0  0
  104.8230   61.5848   45.7634 C   0  0  0  0  0  0  0  0  0  0  0  0
  109.5229   67.4401   31.5645 C   0  0  0  0  0  0  0  0  0  0  0  0
  108.6500   68.5779   33.5088 C   0  0  0  0  0  0  0  0  0  0  0  0
  104.2854   62.2562   44.6653 C   0  0  0  0  0  0  0  0  0  0  0  0
  106.2065   61.4968   45.9182 C   0  0  0  0  0  0  0  0  0  0  0  0
  110.1862   66.5343   32.3923 C   0  0  0  0  0  0  0  0  0  0  0  0
  109.3133   67.6722   34.3366 C   0  0  0  0  0  0  0  0  0  0  0  0
  105.1312   62.8396   43.7220 C   0  0  0  0  0  0  0  0  0  0  0  0
  107.0523   62.0802   44.9749 C   0  0  0  0  0  0  0  0  0  0  0  0
  107.5074   64.6698   42.5039 C   0  0  0  0  0  0  0  0  0  0  0  0
  111.0725   64.3932   34.3659 C   0  0  0  0  0  0  0  0  0  0  0  0
  110.0814   66.6504   33.7784 C   0  0  0  0  0  0  0  0  0  0  0  0
  106.5147   62.7516   43.8768 C   0  0  0  0  0  0  0  0  0  0  0  0
  110.7803   65.6972   34.6505 C   0  0  0  0  0  0  0  0  0  0  0  0
  107.3882   63.3550   42.9029 C   0  0  0  0  0  0  0  0  0  0  0  0
  111.8420   64.8389   36.3931 C   0  0  0  0  0  0  0  0  0  0  0  0
  109.0478   63.7925   41.2127 C   0  0  0  0  0  0  0  0  0  0  0  0
  110.7017   64.5539   39.4618 C   0  0  0  0  0  0  0  0  0  0  0  0
  112.4877   64.6938   37.7184 C   0  0  0  0  0  0  0  0  0  0  0  0
  108.4588   64.9226   41.5351 N   0  0  0  0  0  0  0  0  0  0  0  0
  111.7297   63.8868   35.4612 N   0  0  0  0  0  0  0  0  0  0  0  0
  111.2676   65.9457   35.9110 N   0  0  0  0  0  4  0  0  0  0  0  0
  110.0793   63.5945   40.2653 N   0  0  0  0  0  0  0  0  0  0  0  0
  111.6754   63.9541   38.6567 N   0  0  0  0  0  0  0  0  0  0  0  0
  110.4582   65.7580   39.4367 O   0  0  0  0  0  0  0  0  0  0  0  0
  108.5066   62.3868   42.0350 S   0  0  0  0  0  0  0  0  0  0  0  0
  108.2317   69.1760   31.4698 H   0  0  0  0  0  0  0  0  0  0  0  0
  104.1560   61.1247   46.5073 H   0  0  0  0  0  0  0  0  0  0  0  0
  109.6056   67.3486   30.4714 H   0  0  0  0  0  0  0  0  0  0  0  0
  108.0443   69.3837   33.9490 H   0  0  0  0  0  0  0  0  0  0  0  0
  103.1944   62.3256   44.5432 H   0  0  0  0  0  0  0  0  0  0  0  0
  106.6305   60.9673   46.7842 H   0  0  0  0  0  0  0  0  0  0  0  0
  110.7919   65.7285   31.9521 H   0  0  0  0  0  0  0  0  0  0  0  0
  109.2307   67.7637   35.4297 H   0  0  0  0  0  0  0  0  0  0  0  0
  104.7072   63.3691   42.8560 H   0  0  0  0  0  0  0  0  0  0  0  0
  108.1433   62.0108   45.0970 H   0  0  0  0  0  0  0  0  0  0  0  0
  106.8830   65.4683   42.9311 H   0  0  0  0  0  0  0  0  0  0  0  0
  110.8288   63.8532   33.4391 H   0  0  0  0  0  0  0  0  0  0  0  0
  113.4438   64.1657   37.5880 H   0  0  0  0  0  0  0  0  0  0  0  0
  112.6333   65.7037   38.1293 H   0  0  0  0  0  0  0  0  0  0  0  0
  112.0814   62.9228   35.5505 H   0  0  0  0  0  0  0  0  0  0  0  0
  111.2007   66.8456   36.4077 H   0  0  0  0  0  0  0  0  0  0  0  0
  110.4120   62.6261   40.1541 H   0  0  0  0  0  0  0  0  0  0  0  0
  111.8202   62.9374   38.7364 H   0  0  0  0  0  0  0  0  0  0  0  0
  1  3  2  0
  1  4  1  0
  2  5  2  0
  2  6  1  0
  3  7  1  0
  4  8  2  0
  5  9  1  0
  6 10  2  0
  7 13  2  0
  8 13  1  0
  9 14  2  0
 10 14  1  0
 11 16  2  0
 11 21  1  0
 12 15  2  0
 12 22  1  0
 13 15  1  0
 14 16  1  0
 15 23  1  0
 16 27  1  0
 17 20  1  0
 17 22  1  0
 17 23  2  0
 18 21  2  0
 18 24  1  0
 18 27  1  0
 19 24  1  0
 19 25  1  0
 19 26  2  0
 20 25  1  0
  1 28  1  0
  2 29  1  0
  3 30  1  0
  4 31  1  0
  5 32  1  0
  6 33  1  0
  7 34  1  0
  8 35  1  0
  9 36  1  0
 10 37  1  0
 11 38  1  0
 12 39  1  0
 20 40  1  0
 20 41  1  0
 22 42  1  0
 23 43  1  0
 24 44  1  0
 25 45  1  0
M  CHG  1  23   1
M  END
>  <s_m_entry_id>  (18) 
21947

>  <s_m_Source_Path>  (18) 
C:\Users\vinicius\Downloads\Ligands_Ecoli

>  <s_m_Source_File>  (18) 
Ligands_Ecoli_o.sdf

>  <i_m_Source_File_Index>  (18) 
75

>  <i_f3d_flags>  (18) 
0

>  <r_lp_tautomer_probability>  (18) 
0.999000488399163

>  <r_epik_Ionization_Penalty>  (18) 
  2.2420

>  <r_epik_State_Penalty>  (18) 
  1.5485

>  <i_epik_Tot_Q>  (18) 
1

>  <s_m_job_name>  (18) 
ligs_ecFabI_ligprep_2

>  <class_value>  (18) 
0

>  <FRED Chemgauss4 score>  (18) 
-15.416564

>  <Name>  (18) 
CHEMBL237638

>  <Set>  (18) 
training

>  <HBA count>  (18) 
3

>  <HBD count>  (18) 
3

>  <ExactMolWt>  (18) 
376.1226576160906

>  <NumRotatableBounds>  (18) 
5

>  <FractionCsp3>  (18) 
0.05

>  <TPSA>  (18) 
83.94999999999999

>  <LogP_WildmanCrippen>  (18) 
3.9410000000000007

>  <General_Cluster>  (18) 
3

>  <Biological_Cluster>  (18) 
2

>  <Physicochemical_Cluster>  (18) 
9

>  <Structural_Cluster>  (18) 
4

$$$$
CHEMBL235272
     RDKit          3D

 50 53  0  0  0  0  0  0  0  0999 V2000
  102.2174   64.8837   42.6110 C   0  0  0  0  0  0  0  0  0  0  0  0
  102.4723   63.7242   43.3432 C   0  0  0  0  0  0  0  0  0  0  0  0
  103.2776   65.6484   42.1242 C   0  0  0  0  0  0  0  0  0  0  0  0
  103.7874   63.3294   43.5887 C   0  0  0  0  0  0  0  0  0  0  0  0
  104.5927   65.2535   42.3697 C   0  0  0  0  0  0  0  0  0  0  0  0
  110.1915   68.2258   32.2552 C   0  0  0  0  0  0  0  0  0  0  0  0
  108.3264   66.9096   33.0462 C   0  0  0  0  0  0  0  0  0  0  0  0
  111.0779   67.3185   32.8354 C   0  0  0  0  0  0  0  0  0  0  0  0
  109.2128   66.0021   33.6263 C   0  0  0  0  0  0  0  0  0  0  0  0
  110.7695   66.1942   36.6365 C   0  0  0  0  0  0  0  0  0  0  0  0
  106.6374   62.5743   44.0557 C   0  0  0  0  0  0  0  0  0  0  0  0
  104.8476   64.0940   43.1019 C   0  0  0  0  0  0  0  0  0  0  0  0
  108.8157   68.0214   32.3607 C   0  0  0  0  0  0  0  0  0  0  0  0
  110.5886   66.2066   33.5209 C   0  0  0  0  0  0  0  0  0  0  0  0
  106.2326   63.6782   43.3598 C   0  0  0  0  0  0  0  0  0  0  0  0
  111.2884   65.1129   35.9556 C   0  0  0  0  0  0  0  0  0  0  0  0
  108.4461   63.6492   43.3678 C   0  0  0  0  0  0  0  0  0  0  0  0
  110.8238   64.7570   38.2922 C   0  0  0  0  0  0  0  0  0  0  0  0
  107.8916   68.9675   31.7559 C   0  0  0  0  0  0  0  0  0  0  0  0
  110.2369   64.6836   40.7480 C   0  0  0  0  0  0  0  0  0  0  0  0
  109.8611   64.0158   43.1274 C   0  0  0  0  0  0  0  0  0  0  0  0
  110.5021   65.9918   37.9764 N   0  0  0  0  0  0  0  0  0  0  0  0
  108.0114   62.5812   44.0444 N   0  0  0  0  0  0  0  0  0  0  0  0
  107.3723   64.3248   42.9460 N   0  0  0  0  0  4  0  0  0  0  0  0
  108.4312   70.0601   31.0832 N   0  0  0  0  0  0  0  0  0  0  0  0
  110.7125   64.1309   39.5556 N   0  0  0  0  0  0  0  0  0  0  0  0
  110.2879   63.7364   41.7757 N   0  0  0  0  0  0  0  0  0  0  0  0
  106.6602   68.8200   31.8478 O   0  0  0  0  0  0  0  0  0  0  0  0
  109.8249   65.8297   40.9110 O   0  0  0  0  0  0  0  0  0  0  0  0
  111.4542   63.7840   37.0270 S   0  0  0  0  0  0  0  0  0  0  0  0
  111.7290   65.0398   34.2674 S   0  0  0  0  0  0  0  0  0  0  0  0
  101.1803   65.1951   42.4174 H   0  0  0  0  0  0  0  0  0  0  0  0
  101.6362   63.1211   43.7270 H   0  0  0  0  0  0  0  0  0  0  0  0
  103.0766   66.5628   41.5467 H   0  0  0  0  0  0  0  0  0  0  0  0
  103.9884   62.4150   44.1662 H   0  0  0  0  0  0  0  0  0  0  0  0
  105.4288   65.8565   41.9859 H   0  0  0  0  0  0  0  0  0  0  0  0
  110.5774   69.1025   31.7144 H   0  0  0  0  0  0  0  0  0  0  0  0
  107.2415   66.7484   33.1294 H   0  0  0  0  0  0  0  0  0  0  0  0
  112.1628   67.4798   32.7524 H   0  0  0  0  0  0  0  0  0  0  0  0
  108.8269   65.1252   34.1668 H   0  0  0  0  0  0  0  0  0  0  0  0
  110.5802   67.1587   36.1427 H   0  0  0  0  0  0  0  0  0  0  0  0
  105.9887   61.8249   44.5328 H   0  0  0  0  0  0  0  0  0  0  0  0
  109.9833   65.0920   43.3196 H   0  0  0  0  0  0  0  0  0  0  0  0
  110.4809   63.4087   43.8036 H   0  0  0  0  0  0  0  0  0  0  0  0
  108.6133   61.8731   44.4885 H   0  0  0  0  0  0  0  0  0  0  0  0
  107.3957   65.1953   42.3959 H   0  0  0  0  0  0  0  0  0  0  0  0
  107.8087   70.7519   30.6418 H   0  0  0  0  0  0  0  0  0  0  0  0
  109.4530   70.1768   31.0268 H   0  0  0  0  0  0  0  0  0  0  0  0
  111.0191   63.1487   39.6026 H   0  0  0  0  0  0  0  0  0  0  0  0
  110.6465   62.7955   41.5588 H   0  0  0  0  0  0  0  0  0  0  0  0
  1  2  2  0
  1  3  1  0
  2  4  1  0
  3  5  2  0
  4 12  2  0
  5 12  1  0
  6  8  2  0
  6 13  1  0
  7  9  1  0
  7 13  2  0
  8 14  1  0
  9 14  2  0
 10 16  2  0
 10 22  1  0
 11 15  2  0
 11 23  1  0
 12 15  1  0
 13 19  1  0
 14 31  1  0
 15 24  1  0
 16 30  1  0
 16 31  1  0
 17 21  1  0
 17 23  1  0
 17 24  2  0
 18 22  2  0
 18 26  1  0
 18 30  1  0
 19 25  1  0
 19 28  2  0
 20 26  1  0
 20 27  1  0
 20 29  2  0
 21 27  1  0
  1 32  1  0
  2 33  1  0
  3 34  1  0
  4 35  1  0
  5 36  1  0
  6 37  1  0
  7 38  1  0
  8 39  1  0
  9 40  1  0
 10 41  1  0
 11 42  1  0
 21 43  1  0
 21 44  1  0
 23 45  1  0
 24 46  1  0
 25 47  1  0
 25 48  1  0
 26 49  1  0
 27 50  1  0
M  CHG  1  24   1
M  END
>  <s_m_entry_id>  (19) 
21913

>  <s_m_Source_Path>  (19) 
C:\Users\vinicius\Downloads\Ligands_Ecoli

>  <s_m_Source_File>  (19) 
Ligands_Ecoli_o.sdf

>  <i_m_Source_File_Index>  (19) 
60

>  <i_f3d_flags>  (19) 
0

>  <r_lp_tautomer_probability>  (19) 
0.999000488399163

>  <r_epik_Ionization_Penalty>  (19) 
  2.2421

>  <r_epik_State_Penalty>  (19) 
  1.5485

>  <i_epik_Tot_Q>  (19) 
1

>  <s_m_job_name>  (19) 
ligs_ecFabI_ligprep_2

>  <class_value>  (19) 
0

>  <FRED Chemgauss4 score>  (19) 
-14.249490

>  <Name>  (19) 
CHEMBL235272

>  <Set>  (19) 
training

>  <HBA count>  (19) 
5

>  <HBD count>  (19) 
4

>  <ExactMolWt>  (19) 
451.10054226809063

>  <NumRotatableBounds>  (19) 
7

>  <FractionCsp3>  (19) 
0.047619047619047616

>  <TPSA>  (19) 
127.03999999999999

>  <LogP_WildmanCrippen>  (19) 
3.5241

>  <General_Cluster>  (19) 
3

>  <Biological_Cluster>  (19) 
2

>  <Physicochemical_Cluster>  (19) 
7

>  <Structural_Cluster>  (19) 
4

$$$$
CHEMBL237637
     RDKit          3D

 41 44  0  0  0  0  0  0  0  0999 V2000
  107.7632   69.4424   31.4535 C   0  0  0  0  0  0  0  0  0  0  0  0
  108.9151   70.2022   31.7489 C   0  0  0  0  0  0  0  0  0  0  0  0
  107.7374   68.0486   31.6042 C   0  0  0  0  0  0  0  0  0  0  0  0
  110.0975   69.6053   32.2094 C   0  0  0  0  0  0  0  0  0  0  0  0
  109.8961   65.1809   42.6758 C   0  0  0  0  0  0  0  0  0  0  0  0
  111.0752   65.1108   41.9296 C   0  0  0  0  0  0  0  0  0  0  0  0
  108.5637   65.1763   40.6540 C   0  0  0  0  0  0  0  0  0  0  0  0
  109.7397   65.1054   39.8761 C   0  0  0  0  0  0  0  0  0  0  0  0
  108.9162   67.4714   32.0614 C   0  0  0  0  0  0  0  0  0  0  0  0
  110.0565   68.2235   32.3538 C   0  0  0  0  0  0  0  0  0  0  0  0
  108.6557   65.2133   42.0484 C   0  0  0  0  0  0  0  0  0  0  0  0
  110.9754   65.0741   40.5295 C   0  0  0  0  0  0  0  0  0  0  0  0
  110.5109   66.0833   32.7500 C   0  0  0  0  0  0  0  0  0  0  0  0
  111.0577   65.0000   38.1102 C   0  0  0  0  0  0  0  0  0  0  0  0
  110.8278   64.9346   35.5955 C   0  0  0  0  0  0  0  0  0  0  0  0
  106.2798   65.3109   42.0908 C   0  0  0  0  0  0  0  0  0  0  0  0
  111.2310   64.8454   33.1301 C   0  0  0  0  0  0  0  0  0  0  0  0
  109.8032   65.0626   38.4909 N   0  0  0  0  0  0  0  0  0  0  0  0
  109.2465   66.1573   32.3218 N   0  0  0  0  0  0  0  0  0  0  0  0
  111.0128   67.3223   32.7743 N   0  0  0  0  0  4  0  0  0  0  0  0
  111.5567   64.9403   36.7881 N   0  0  0  0  0  0  0  0  0  0  0  0
  111.6931   64.8671   34.4986 N   0  0  0  0  0  0  0  0  0  0  0  0
  109.6051   64.9813   35.4842 O   0  0  0  0  0  0  0  0  0  0  0  0
  107.5190   65.2807   42.7963 O   0  0  0  0  0  0  0  0  0  0  0  0
  112.2330   64.9886   39.3530 S   0  0  0  0  0  0  0  0  0  0  0  0
  106.8602   69.9581   31.0949 H   0  0  0  0  0  0  0  0  0  0  0  0
  108.8846   71.2935   31.6141 H   0  0  0  0  0  0  0  0  0  0  0  0
  106.8426   67.4510   31.3755 H   0  0  0  0  0  0  0  0  0  0  0  0
  110.9985   70.1922   32.4412 H   0  0  0  0  0  0  0  0  0  0  0  0
  109.9498   65.2109   43.7741 H   0  0  0  0  0  0  0  0  0  0  0  0
  112.0564   65.0850   42.4261 H   0  0  0  0  0  0  0  0  0  0  0  0
  107.5788   65.2023   40.1648 H   0  0  0  0  0  0  0  0  0  0  0  0
  105.4484   65.3312   42.8108 H   0  0  0  0  0  0  0  0  0  0  0  0
  106.2395   66.2103   41.4588 H   0  0  0  0  0  0  0  0  0  0  0  0
  106.1958   64.4145   41.4588 H   0  0  0  0  0  0  0  0  0  0  0  0
  110.5519   63.9897   33.0015 H   0  0  0  0  0  0  0  0  0  0  0  0
  112.1159   64.7635   32.4819 H   0  0  0  0  0  0  0  0  0  0  0  0
  108.6135   65.3534   32.2039 H   0  0  0  0  0  0  0  0  0  0  0  0
  111.9704   67.5674   33.0637 H   0  0  0  0  0  0  0  0  0  0  0  0
  112.5813   64.8956   36.6926 H   0  0  0  0  0  0  0  0  0  0  0  0
  112.7073   64.8312   34.6749 H   0  0  0  0  0  0  0  0  0  0  0  0
  1  2  2  0
  1  3  1  0
  2  4  1  0
  3  9  2  0
  4 10  2  0
  5  6  2  0
  5 11  1  0
  6 12  1  0
  7  8  1  0
  7 11  2  0
  8 12  2  0
  8 18  1  0
  9 10  1  0
  9 19  1  0
 10 20  1  0
 11 24  1  0
 12 25  1  0
 13 17  1  0
 13 19  1  0
 13 20  2  0
 14 18  2  0
 14 21  1  0
 14 25  1  0
 15 21  1  0
 15 22  1  0
 15 23  2  0
 16 24  1  0
 17 22  1  0
  1 26  1  0
  2 27  1  0
  3 28  1  0
  4 29  1  0
  5 30  1  0
  6 31  1  0
  7 32  1  0
 16 33  1  0
 16 34  1  0
 16 35  1  0
 17 36  1  0
 17 37  1  0
 19 38  1  0
 20 39  1  0
 21 40  1  0
 22 41  1  0
M  CHG  1  20   1
M  END
>  <s_m_entry_id>  (20) 
21944

>  <s_m_Source_Path>  (20) 
C:\Users\vinicius\Downloads\Ligands_Ecoli

>  <s_m_Source_File>  (20) 
Ligands_Ecoli_o.sdf

>  <i_m_Source_File_Index>  (20) 
74

>  <i_f3d_flags>  (20) 
0

>  <r_epik_Ionization_Penalty>  (20) 
  2.2397

>  <r_epik_State_Penalty>  (20) 
  2.3852

>  <i_epik_Tot_Q>  (20) 
1

>  <s_m_job_name>  (20) 
ligs_ecFabI_ligprep_2

>  <class_value>  (20) 
0

>  <FRED Chemgauss4 score>  (20) 
-14.432500

>  <Name>  (20) 
CHEMBL237637

>  <Set>  (20) 
training

>  <HBA count>  (20) 
4

>  <HBD count>  (20) 
3

>  <ExactMolWt>  (20) 
354.10192217209044

>  <NumRotatableBounds>  (20) 
5

>  <FractionCsp3>  (20) 
0.11764705882352941

>  <TPSA>  (20) 
93.17999999999999

>  <LogP_WildmanCrippen>  (20) 
2.9219999999999997

>  <General_Cluster>  (20) 
3

>  <Biological_Cluster>  (20) 
2

>  <Physicochemical_Cluster>  (20) 
9

>  <Structural_Cluster>  (20) 
4

$$$$
CHEMBL566647
     RDKit          3D

 62 66  0  0  0  0  0  0  0  0999 V2000
  107.8607   69.3351   30.8249 C   0  0  0  0  0  0  0  0  0  0  0  0
  106.8217   68.5106   31.2325 C   0  0  0  0  0  0  0  0  0  0  0  0
  109.1259   69.2151   31.4058 C   0  0  0  0  0  0  0  0  0  0  0  0
  107.0229   67.5509   32.2263 C   0  0  0  0  0  0  0  0  0  0  0  0
  109.9310   64.7842   39.8466 C   0  0  0  0  0  0  0  0  0  0  0  0
  112.1052   65.6720   40.2006 C   0  0  0  0  0  0  0  0  0  0  0  0
  109.3622   68.2517   32.4162 C   0  0  0  0  0  0  0  0  0  0  0  0
  111.2139   65.0191   39.3676 C   0  0  0  0  0  0  0  0  0  0  0  0
  109.5868   65.1873   41.1375 C   0  0  0  0  0  0  0  0  0  0  0  0
  110.5558   67.9434   33.1514 C   0  0  0  0  0  0  0  0  0  0  0  0
  108.2996   67.4326   32.8099 C   0  0  0  0  0  0  0  0  0  0  0  0
  110.3772   66.9271   34.0596 C   0  0  0  0  0  0  0  0  0  0  0  0
  110.5553   65.8317   41.9016 C   0  0  0  0  0  0  0  0  0  0  0  0
  109.0312   65.9777   43.8423 C   0  0  0  0  0  0  0  0  0  0  0  0
  111.6023   64.6055   38.0316 C   0  0  0  0  0  0  0  0  0  0  0  0
  110.7485   64.3332   37.0166 C   0  0  0  0  0  0  0  0  0  0  0  0
  111.2719   63.8834   35.6930 C   0  0  0  0  0  0  0  0  0  0  0  0
  108.1925   65.0325   41.6673 C   0  0  0  0  0  0  0  0  0  0  0  0
  106.6877   64.9799   43.6693 C   0  0  0  0  0  0  0  0  0  0  0  0
  108.7444   63.4822   43.6008 C   0  0  0  0  0  0  0  0  0  0  0  0
  106.4230   64.5175   45.0970 C   0  0  0  0  0  0  0  0  0  0  0  0
  108.4722   63.1010   45.0489 C   0  0  0  0  0  0  0  0  0  0  0  0
  108.1634   64.8668   43.2068 C   0  0  0  0  0  0  0  0  0  0  0  0
  111.8491   68.6473   32.9530 C   0  0  0  0  0  0  0  0  0  0  0  0
  112.0434   64.5322   33.4435 C   0  0  0  0  0  0  0  0  0  0  0  0
  111.3750   66.3236   35.0053 C   0  0  0  0  0  0  0  0  0  0  0  0
  111.8053   66.0904   41.4505 N   0  0  0  0  0  0  0  0  0  0  0  0
  110.2163   66.2716   43.1929 N   0  0  0  0  0  0  0  0  0  0  0  0
  111.5567   64.8927   34.7689 N   0  0  0  0  0  0  0  0  0  0  0  0
  107.0067   63.1647   45.3021 N   0  0  0  0  0  4  0  0  0  0  0  0
  108.7381   66.5193   44.9091 O   0  0  0  0  0  0  0  0  0  0  0  0
  111.4050   62.6803   35.4645 O   0  0  0  0  0  0  0  0  0  0  0  0
  108.7811   66.3293   34.0445 S   0  0  0  0  0  0  0  0  0  0  0  0
  107.6875   70.0868   30.0407 H   0  0  0  0  0  0  0  0  0  0  0  0
  105.8299   68.6141   30.7681 H   0  0  0  0  0  0  0  0  0  0  0  0
  109.9434   69.8732   31.0761 H   0  0  0  0  0  0  0  0  0  0  0  0
  106.1982   66.8980   32.5483 H   0  0  0  0  0  0  0  0  0  0  0  0
  109.1883   64.2816   39.2097 H   0  0  0  0  0  0  0  0  0  0  0  0
  113.1204   65.8623   39.8224 H   0  0  0  0  0  0  0  0  0  0  0  0
  112.6784   64.5050   37.8269 H   0  0  0  0  0  0  0  0  0  0  0  0
  109.6646   64.4439   37.1680 H   0  0  0  0  0  0  0  0  0  0  0  0
  107.6101   65.9256   41.3966 H   0  0  0  0  0  0  0  0  0  0  0  0
  107.7629   64.1226   41.2229 H   0  0  0  0  0  0  0  0  0  0  0  0
  106.0705   64.3701   42.9931 H   0  0  0  0  0  0  0  0  0  0  0  0
  106.4381   66.0509   43.6418 H   0  0  0  0  0  0  0  0  0  0  0  0
  109.8331   63.5040   43.4450 H   0  0  0  0  0  0  0  0  0  0  0  0
  108.2483   62.7308   42.9690 H   0  0  0  0  0  0  0  0  0  0  0  0
  106.8837   65.2252   45.8019 H   0  0  0  0  0  0  0  0  0  0  0  0
  105.3377   64.4763   45.2713 H   0  0  0  0  0  0  0  0  0  0  0  0
  108.8341   62.0790   45.2350 H   0  0  0  0  0  0  0  0  0  0  0  0
  108.9949   63.7982   45.7202 H   0  0  0  0  0  0  0  0  0  0  0  0
  112.2899   68.8872   33.9318 H   0  0  0  0  0  0  0  0  0  0  0  0
  112.5368   67.9990   32.3901 H   0  0  0  0  0  0  0  0  0  0  0  0
  111.6781   69.5768   32.3901 H   0  0  0  0  0  0  0  0  0  0  0  0
  112.9238   63.8801   33.5411 H   0  0  0  0  0  0  0  0  0  0  0  0
  111.2523   64.0005   32.8945 H   0  0  0  0  0  0  0  0  0  0  0  0
  112.3215   65.4439   32.8945 H   0  0  0  0  0  0  0  0  0  0  0  0
  112.3419   66.8311   34.8730 H   0  0  0  0  0  0  0  0  0  0  0  0
  110.9947   66.4534   36.0293 H   0  0  0  0  0  0  0  0  0  0  0  0
  110.9014   66.8563   43.6926 H   0  0  0  0  0  0  0  0  0  0  0  0
  106.8323   62.8795   46.2763 H   0  0  0  0  0  0  0  0  0  0  0  0
  106.5560   62.5360   44.6220 H   0  0  0  0  0  0  0  0  0  0  0  0
  1  2  2  0
  1  3  1  0
  2  4  1  0
  3  7  2  0
  4 11  2  0
  5  8  2  0
  5  9  1  0
  6  8  1  0
  6 27  2  0
  7 10  1  0
  7 11  1  0
  8 15  1  0
  9 13  2  0
  9 18  1  0
 10 12  2  0
 10 24  1  0
 11 33  1  0
 12 26  1  0
 12 33  1  0
 13 27  1  0
 13 28  1  0
 14 23  1  0
 14 28  1  0
 14 31  2  0
 15 16  2  0
 16 17  1  0
 17 29  1  0
 17 32  2  0
 18 23  1  0
 19 21  1  0
 19 23  1  0
 20 22  1  0
 20 23  1  0
 21 30  1  0
 22 30  1  0
 25 29  1  0
 26 29  1  0
  1 34  1  0
  2 35  1  0
  3 36  1  0
  4 37  1  0
  5 38  1  0
  6 39  1  0
 15 40  1  0
 16 41  1  0
 18 42  1  0
 18 43  1  0
 19 44  1  0
 19 45  1  0
 20 46  1  0
 20 47  1  0
 21 48  1  0
 21 49  1  0
 22 50  1  0
 22 51  1  0
 24 52  1  0
 24 53  1  0
 24 54  1  0
 25 55  1  0
 25 56  1  0
 25 57  1  0
 26 58  1  0
 26 59  1  0
 28 60  1  0
 30 61  1  0
 30 62  1  0
M  CHG  1  30   1
M  END
>  <s_m_entry_id>  (21) 
21986

>  <s_m_Source_Path>  (21) 
C:\Users\vinicius\Downloads\Ligands_Ecoli

>  <s_m_Source_File>  (21) 
Ligands_Ecoli_o.sdf

>  <i_m_Source_File_Index>  (21) 
95

>  <i_f3d_flags>  (21) 
0

>  <r_epik_Ionization_Penalty>  (21) 
  0.0037

>  <r_epik_State_Penalty>  (21) 
  0.0026

>  <i_epik_Tot_Q>  (21) 
1

>  <s_m_job_name>  (21) 
ligs_ecFabI_ligprep_2

>  <class_value>  (21) 
1

>  <FRED Chemgauss4 score>  (21) 
-14.617475

>  <Name>  (21) 
CHEMBL566647

>  <Set>  (21) 
training

>  <HBA count>  (21) 
4

>  <HBD count>  (21) 
2

>  <ExactMolWt>  (21) 
461.20057358809083

>  <NumRotatableBounds>  (21) 
6

>  <FractionCsp3>  (21) 
0.34615384615384615

>  <TPSA>  (21) 
78.91

>  <LogP_WildmanCrippen>  (21) 
3.114720000000001

>  <General_Cluster>  (21) 
4

>  <Biological_Cluster>  (21) 
1

>  <Physicochemical_Cluster>  (21) 
3

>  <Structural_Cluster>  (21) 
5

$$$$
CHEMBL393299
     RDKit          3D

 37 40  0  0  0  0  0  0  0  0999 V2000
  108.0324   69.3080   31.3909 C   0  0  0  0  0  0  0  0  0  0  0  0
  109.0918   70.1380   31.8154 C   0  0  0  0  0  0  0  0  0  0  0  0
  109.4712   63.8992   41.3354 C   0  0  0  0  0  0  0  0  0  0  0  0
  108.1068   67.9104   31.4780 C   0  0  0  0  0  0  0  0  0  0  0  0
  110.2773   69.6111   32.3477 C   0  0  0  0  0  0  0  0  0  0  0  0
  109.4460   64.7302   42.4592 C   0  0  0  0  0  0  0  0  0  0  0  0
  110.2972   66.5868   41.1526 C   0  0  0  0  0  0  0  0  0  0  0  0
  109.9145   64.4101   40.0963 C   0  0  0  0  0  0  0  0  0  0  0  0
  109.2875   67.4031   32.0076 C   0  0  0  0  0  0  0  0  0  0  0  0
  110.3361   68.2248   32.4278 C   0  0  0  0  0  0  0  0  0  0  0  0
  109.8541   66.0562   42.3668 C   0  0  0  0  0  0  0  0  0  0  0  0
  110.3198   65.7465   40.0279 C   0  0  0  0  0  0  0  0  0  0  0  0
  110.9278   66.1085   32.7674 C   0  0  0  0  0  0  0  0  0  0  0  0
  110.4480   64.4967   37.9574 C   0  0  0  0  0  0  0  0  0  0  0  0
  111.1607   65.0097   35.5890 C   0  0  0  0  0  0  0  0  0  0  0  0
  111.7121   64.9118   33.1527 C   0  0  0  0  0  0  0  0  0  0  0  0
  109.9934   63.7076   38.9026 N   0  0  0  0  0  0  0  0  0  0  0  0
  109.7003   66.1068   32.2375 N   0  0  0  0  0  0  0  0  0  0  0  0
  111.3248   67.3795   32.8880 N   0  0  0  0  0  4  0  0  0  0  0  0
  110.6770   64.1740   36.5995 N   0  0  0  0  0  0  0  0  0  0  0  0
  111.2450   64.3107   34.3804 N   0  0  0  0  0  0  0  0  0  0  0  0
  111.4773   66.1913   35.7045 O   0  0  0  0  0  0  0  0  0  0  0  0
  109.8224   66.8373   43.4553 F   0  0  0  0  0  0  0  0  0  0  0  0
  110.8077   66.1056   38.4136 S   0  0  0  0  0  0  0  0  0  0  0  0
  107.1227   69.7703   30.9802 H   0  0  0  0  0  0  0  0  0  0  0  0
  108.9846   71.2291   31.7262 H   0  0  0  0  0  0  0  0  0  0  0  0
  109.1469   62.8512   41.4163 H   0  0  0  0  0  0  0  0  0  0  0  0
  107.2845   67.2582   31.1487 H   0  0  0  0  0  0  0  0  0  0  0  0
  111.1065   70.2530   32.6801 H   0  0  0  0  0  0  0  0  0  0  0  0
  109.1005   64.3318   43.4246 H   0  0  0  0  0  0  0  0  0  0  0  0
  110.6200   67.6358   41.0796 H   0  0  0  0  0  0  0  0  0  0  0  0
  111.6378   64.1677   32.3460 H   0  0  0  0  0  0  0  0  0  0  0  0
  112.7514   65.2337   33.3148 H   0  0  0  0  0  0  0  0  0  0  0  0
  109.1456   65.2637   32.0316 H   0  0  0  0  0  0  0  0  0  0  0  0
  112.2331   67.6824   33.2677 H   0  0  0  0  0  0  0  0  0  0  0  0
  110.4612   63.2059   36.3217 H   0  0  0  0  0  0  0  0  0  0  0  0
  110.9607   63.3208   34.3651 H   0  0  0  0  0  0  0  0  0  0  0  0
  1  2  2  0
  1  4  1  0
  2  5  1  0
  3  6  2  0
  3  8  1  0
  4  9  2  0
  5 10  2  0
  6 11  1  0
  7 11  2  0
  7 12  1  0
  8 12  2  0
  8 17  1  0
  9 10  1  0
  9 18  1  0
 10 19  1  0
 11 23  1  0
 12 24  1  0
 13 16  1  0
 13 18  1  0
 13 19  2  0
 14 17  2  0
 14 20  1  0
 14 24  1  0
 15 20  1  0
 15 21  1  0
 15 22  2  0
 16 21  1  0
  1 25  1  0
  2 26  1  0
  3 27  1  0
  4 28  1  0
  5 29  1  0
  6 30  1  0
  7 31  1  0
 16 32  1  0
 16 33  1  0
 18 34  1  0
 19 35  1  0
 20 36  1  0
 21 37  1  0
M  CHG  1  19   1
M  END
>  <s_m_entry_id>  (22) 
21902

>  <s_m_Source_Path>  (22) 
C:\Users\vinicius\Downloads\Ligands_Ecoli

>  <s_m_Source_File>  (22) 
Ligands_Ecoli_o.sdf

>  <i_m_Source_File_Index>  (22) 
56

>  <i_f3d_flags>  (22) 
0

>  <r_epik_Ionization_Penalty>  (22) 
  2.2408

>  <r_epik_State_Penalty>  (22) 
  2.3852

>  <i_epik_Tot_Q>  (22) 
1

>  <s_m_job_name>  (22) 
ligs_ecFabI_ligprep_2

>  <class_value>  (22) 
0

>  <FRED Chemgauss4 score>  (22) 
-14.655461

>  <Name>  (22) 
CHEMBL393299

>  <Set>  (22) 
training

>  <HBA count>  (22) 
3

>  <HBD count>  (22) 
3

>  <ExactMolWt>  (22) 
342.0819356760903

>  <NumRotatableBounds>  (22) 
3

>  <FractionCsp3>  (22) 
0.0625

>  <TPSA>  (22) 
83.94999999999999

>  <LogP_WildmanCrippen>  (22) 
3.0525

>  <General_Cluster>  (22) 
3

>  <Biological_Cluster>  (22) 
2

>  <Physicochemical_Cluster>  (22) 
9

>  <Structural_Cluster>  (22) 
4

$$$$
CHEMBL2178293
     RDKit          3D

 34 35  0  0  0  0  0  0  0  0999 V2000
  109.0451   65.8971   33.6619 C   0  0  0  0  0  0  0  0  0  0  0  0
  109.0971   65.0863   34.7956 C   0  0  0  0  0  0  0  0  0  0  0  0
  110.9217   65.6257   37.4980 C   0  0  0  0  0  0  0  0  0  0  0  0
  111.2480   66.2357   38.7092 C   0  0  0  0  0  0  0  0  0  0  0  0
  111.3747   65.4317   33.2222 C   0  0  0  0  0  0  0  0  0  0  0  0
  110.9636   64.1246   39.8491 C   0  0  0  0  0  0  0  0  0  0  0  0
  110.1839   66.0698   32.8751 C   0  0  0  0  0  0  0  0  0  0  0  0
  111.4267   64.6209   34.3560 C   0  0  0  0  0  0  0  0  0  0  0  0
  110.2879   64.4482   35.1427 C   0  0  0  0  0  0  0  0  0  0  0  0
  110.6162   64.2651   37.4624 C   0  0  0  0  0  0  0  0  0  0  0  0
  110.6372   63.5146   38.6379 C   0  0  0  0  0  0  0  0  0  0  0  0
  111.2690   65.4852   39.8847 C   0  0  0  0  0  0  0  0  0  0  0  0
  110.4761   68.3910   31.9734 C   0  0  0  0  0  0  0  0  0  0  0  0
  110.1279   66.9375   31.6633 C   0  0  0  0  0  0  0  0  0  0  0  0
  111.5563   64.9260   42.4750 N   0  0  0  0  0  0  0  0  0  0  0  0
  112.5303   64.0416   34.6605 O   0  0  0  0  0  1  0  0  0  0  0  0
  113.0675   66.6785   41.3390 O   0  0  0  0  0  0  0  0  0  0  0  0
  110.6364   67.2135   41.7279 O   0  0  0  0  0  0  0  0  0  0  0  0
  110.2921   63.6630   36.2610 O   0  0  0  0  0  0  0  0  0  0  0  0
  110.3444   62.2072   38.6107 F   0  0  0  0  0  0  0  0  0  0  0  0
  111.6774   66.2491   41.4007 S   0  0  0  0  0  6  0  0  0  0  0  0
  108.1060   66.4004   33.3883 H   0  0  0  0  0  0  0  0  0  0  0  0
  108.1990   64.9501   35.4160 H   0  0  0  0  0  0  0  0  0  0  0  0
  110.9053   66.2175   36.5709 H   0  0  0  0  0  0  0  0  0  0  0  0
  111.4888   67.3087   38.7373 H   0  0  0  0  0  0  0  0  0  0  0  0
  112.2728   65.5679   32.6018 H   0  0  0  0  0  0  0  0  0  0  0  0
  110.9802   63.5327   40.7761 H   0  0  0  0  0  0  0  0  0  0  0  0
  110.5107   68.5352   33.0634 H   0  0  0  0  0  0  0  0  0  0  0  0
  111.4577   68.6333   31.5402 H   0  0  0  0  0  0  0  0  0  0  0  0
  109.7109   69.0518   31.5402 H   0  0  0  0  0  0  0  0  0  0  0  0
  110.8424   66.5536   30.9203 H   0  0  0  0  0  0  0  0  0  0  0  0
  109.0971   66.9134   31.2802 H   0  0  0  0  0  0  0  0  0  0  0  0
  111.5876   65.2682   43.4460 H   0  0  0  0  0  0  0  0  0  0  0  0
  110.6667   64.4328   42.3133 H   0  0  0  0  0  0  0  0  0  0  0  0
  1  2  2  0
  1  7  1  0
  2  9  1  0
  3  4  2  0
  3 10  1  0
  4 12  1  0
  5  7  2  0
  5  8  1  0
  6 11  1  0
  6 12  2  0
  7 14  1  0
  8  9  2  0
  8 16  1  0
  9 19  1  0
 10 11  2  0
 10 19  1  0
 11 20  1  0
 12 21  1  0
 13 14  1  0
 15 21  1  0
 17 21  2  0
 18 21  2  0
  1 22  1  0
  2 23  1  0
  3 24  1  0
  4 25  1  0
  5 26  1  0
  6 27  1  0
 13 28  1  0
 13 29  1  0
 13 30  1  0
 14 31  1  0
 14 32  1  0
 15 33  1  0
 15 34  1  0
M  CHG  1  16  -1
M  END
>  <s_m_entry_id>  (23) 
22043

>  <s_m_Source_Path>  (23) 
C:\Users\vinicius\Downloads\Ligands_Ecoli

>  <s_m_Source_File>  (23) 
Ligands_Ecoli_o.sdf

>  <i_m_Source_File_Index>  (23) 
126

>  <i_f3d_flags>  (23) 
0

>  <r_lp_tautomer_probability>  (23) 
1

>  <r_epik_Ionization_Penalty>  (23) 
  1.3166

>  <r_epik_State_Penalty>  (23) 
  1.4431

>  <i_epik_Tot_Q>  (23) 
-1

>  <s_m_job_name>  (23) 
ligs_ecFabI_ligprep_2

>  <class_value>  (23) 
1

>  <FRED Chemgauss4 score>  (23) 
-15.668951

>  <Name>  (23) 
CHEMBL2178293

>  <Set>  (23) 
training

>  <HBA count>  (23) 
4

>  <HBD count>  (23) 
1

>  <ExactMolWt>  (23) 
310.05548069591043

>  <NumRotatableBounds>  (23) 
6

>  <FractionCsp3>  (23) 
0.14285714285714285

>  <TPSA>  (23) 
92.45

>  <LogP_WildmanCrippen>  (23) 
1.901399999999999

>  <General_Cluster>  (23) 
4

>  <Biological_Cluster>  (23) 
1

>  <Physicochemical_Cluster>  (23) 
3

>  <Structural_Cluster>  (23) 
3

$$$$
CHEMBL237635
     RDKit          3D

 35 38  0  0  0  0  0  0  0  0999 V2000
  108.0207   63.8242   43.9756 C   0  0  0  0  0  0  0  0  0  0  0  0
  109.1471   68.0159   32.8004 C   0  0  0  0  0  0  0  0  0  0  0  0
  106.9571   64.5288   43.4072 C   0  0  0  0  0  0  0  0  0  0  0  0
  109.6472   67.2548   31.7496 C   0  0  0  0  0  0  0  0  0  0  0  0
  109.2940   63.8457   43.3925 C   0  0  0  0  0  0  0  0  0  0  0  0
  109.3758   67.6343   34.1256 C   0  0  0  0  0  0  0  0  0  0  0  0
  107.1254   65.2790   42.2386 C   0  0  0  0  0  0  0  0  0  0  0  0
  110.3873   66.0951   31.9933 C   0  0  0  0  0  0  0  0  0  0  0  0
  109.4810   64.5941   42.2181 C   0  0  0  0  0  0  0  0  0  0  0  0
  110.1206   66.4668   34.3998 C   0  0  0  0  0  0  0  0  0  0  0  0
  108.4019   65.2859   41.6754 C   0  0  0  0  0  0  0  0  0  0  0  0
  110.6131   65.7177   33.3268 C   0  0  0  0  0  0  0  0  0  0  0  0
  110.2381   65.5644   40.4732 C   0  0  0  0  0  0  0  0  0  0  0  0
  111.1315   64.8675   35.5344 C   0  0  0  0  0  0  0  0  0  0  0  0
  111.5182   64.2278   37.9328 C   0  0  0  0  0  0  0  0  0  0  0  0
  111.0838   66.0670   39.3744 C   0  0  0  0  0  0  0  0  0  0  0  0
  110.6130   64.7790   41.4579 N   0  0  0  0  0  0  0  0  0  0  0  0
  110.4255   65.9671   35.6575 N   0  0  0  0  0  0  0  0  0  0  0  0
  108.9150   65.8973   40.5603 N   0  0  0  0  0  0  0  0  0  0  0  0
  111.6444   64.0517   36.5685 N   0  0  0  0  0  0  0  0  0  0  0  0
  111.9649   63.5172   38.8250 O   0  0  0  0  0  0  0  0  0  0  0  0
  110.7866   65.3637   38.1677 O   0  0  0  0  0  0  0  0  0  0  0  0
  111.4772   64.3570   33.9389 S   0  0  0  0  0  0  0  0  0  0  0  0
  107.8558   63.2436   44.8952 H   0  0  0  0  0  0  0  0  0  0  0  0
  108.5668   68.9257   32.5871 H   0  0  0  0  0  0  0  0  0  0  0  0
  105.9682   64.4931   43.8877 H   0  0  0  0  0  0  0  0  0  0  0  0
  109.4576   67.5699   30.7129 H   0  0  0  0  0  0  0  0  0  0  0  0
  110.1287   63.2893   43.8437 H   0  0  0  0  0  0  0  0  0  0  0  0
  108.9769   68.2414   34.9516 H   0  0  0  0  0  0  0  0  0  0  0  0
  106.2921   65.8363   41.7858 H   0  0  0  0  0  0  0  0  0  0  0  0
  110.7829   65.4932   31.1619 H   0  0  0  0  0  0  0  0  0  0  0  0
  110.8906   67.1399   39.2276 H   0  0  0  0  0  0  0  0  0  0  0  0
  112.1415   65.9100   39.6324 H   0  0  0  0  0  0  0  0  0  0  0  0
  108.3962   66.4997   39.9054 H   0  0  0  0  0  0  0  0  0  0  0  0
  112.1781   63.2237   36.2677 H   0  0  0  0  0  0  0  0  0  0  0  0
  1  3  2  0
  1  5  1  0
  2  4  2  0
  2  6  1  0
  3  7  1  0
  4  8  1  0
  5  9  2  0
  6 10  2  0
  7 11  2  0
  8 12  2  0
  9 11  1  0
  9 17  1  0
 10 12  1  0
 10 18  1  0
 11 19  1  0
 12 23  1  0
 13 16  1  0
 13 17  2  0
 13 19  1  0
 14 18  2  0
 14 20  1  0
 14 23  1  0
 15 20  1  0
 15 21  2  0
 15 22  1  0
 16 22  1  0
  1 24  1  0
  2 25  1  0
  3 26  1  0
  4 27  1  0
  5 28  1  0
  6 29  1  0
  7 30  1  0
  8 31  1  0
 16 32  1  0
 16 33  1  0
 19 34  1  0
 20 35  1  0
M  END
>  <s_m_entry_id>  (24) 
21933

>  <s_m_Source_Path>  (24) 
C:\Users\vinicius\Downloads\Ligands_Ecoli

>  <s_m_Source_File>  (24) 
Ligands_Ecoli_o.sdf

>  <i_m_Source_File_Index>  (24) 
70

>  <i_f3d_flags>  (24) 
0

>  <r_epik_Ionization_Penalty>  (24) 
  1.3629

>  <r_epik_State_Penalty>  (24) 
  1.4377

>  <i_epik_Tot_Q>  (24) 
0

>  <s_m_job_name>  (24) 
ligs_ecFabI_ligprep_2

>  <class_value>  (24) 
0

>  <FRED Chemgauss4 score>  (24) 
-14.851018

>  <Name>  (24) 
CHEMBL237635

>  <Set>  (24) 
training

>  <HBA count>  (24) 
5

>  <HBD count>  (24) 
2

>  <ExactMolWt>  (24) 
324.0680966240003

>  <NumRotatableBounds>  (24) 
3

>  <FractionCsp3>  (24) 
0.0625

>  <TPSA>  (24) 
79.9

>  <LogP_WildmanCrippen>  (24) 
3.9213000000000013

>  <General_Cluster>  (24) 
3

>  <Biological_Cluster>  (24) 
2

>  <Physicochemical_Cluster>  (24) 
9

>  <Structural_Cluster>  (24) 
4

$$$$
CHEMBL176570
     RDKit          3D

 38 40  0  0  0  0  0  0  0  0999 V2000
  111.1010   65.7322   32.6859 C   0  0  0  0  0  0  0  0  0  0  0  0
  111.5501   65.5052   39.8989 C   0  0  0  0  0  0  0  0  0  0  0  0
  110.3992   65.8241   37.7799 C   0  0  0  0  0  0  0  0  0  0  0  0
  111.4198   64.9444   33.7941 C   0  0  0  0  0  0  0  0  0  0  0  0
  111.9366   63.9786   38.0766 C   0  0  0  0  0  0  0  0  0  0  0  0
  110.6612   66.2249   39.1003 C   0  0  0  0  0  0  0  0  0  0  0  0
  109.2010   66.6481   33.8672 C   0  0  0  0  0  0  0  0  0  0  0  0
  112.1841   64.3782   39.3889 C   0  0  0  0  0  0  0  0  0  0  0  0
  111.0578   64.7026   37.2560 C   0  0  0  0  0  0  0  0  0  0  0  0
  110.6414   65.0237   34.9483 C   0  0  0  0  0  0  0  0  0  0  0  0
  109.5399   65.8710   34.9740 C   0  0  0  0  0  0  0  0  0  0  0  0
  109.9936   66.5825   32.7226 C   0  0  0  0  0  0  0  0  0  0  0  0
  109.4036   66.6358   37.0352 C   0  0  0  0  0  0  0  0  0  0  0  0
  112.6015   62.7911   37.5153 C   0  0  0  0  0  0  0  0  0  0  0  0
  112.5876   64.0481   33.7146 C   0  0  0  0  0  0  0  0  0  0  0  0
  109.9860   67.4064   39.7299 C   0  0  0  0  0  0  0  0  0  0  0  0
  108.0077   67.5454   33.9019 C   0  0  0  0  0  0  0  0  0  0  0  0
  110.3153   68.6398   31.5735 C   0  0  0  0  0  0  0  0  0  0  0  0
  112.9925   63.7269   40.1429 O   0  0  0  0  0  1  0  0  0  0  0  0
  113.2688   64.0170   32.6233 O   0  0  0  0  0  1  0  0  0  0  0  0
  109.1184   67.7877   37.3282 O   0  0  0  0  0  0  0  0  0  0  0  0
  113.7156   62.4225   37.8759 O   0  0  0  0  0  0  0  0  0  0  0  0
  112.8850   63.3285   34.7392 O   0  0  0  0  0  0  0  0  0  0  0  0
  110.9485   64.1852   35.9848 O   0  0  0  0  0  0  0  0  0  0  0  0
  108.7286   65.9015   36.0958 O   0  0  0  0  0  0  0  0  0  0  0  0
  109.7103   67.3498   31.6325 O   0  0  0  0  0  0  0  0  0  0  0  0
  111.7243   65.6829   31.7809 H   0  0  0  0  0  0  0  0  0  0  0  0
  111.7491   65.8292   40.9311 H   0  0  0  0  0  0  0  0  0  0  0  0
  112.0787   62.2103   36.7411 H   0  0  0  0  0  0  0  0  0  0  0  0
  110.0370   67.3172   40.8251 H   0  0  0  0  0  0  0  0  0  0  0  0
  110.4926   68.3300   39.4132 H   0  0  0  0  0  0  0  0  0  0  0  0
  108.9331   67.4387   39.4132 H   0  0  0  0  0  0  0  0  0  0  0  0
  107.7340   67.7512   34.9472 H   0  0  0  0  0  0  0  0  0  0  0  0
  108.2449   68.4908   33.3920 H   0  0  0  0  0  0  0  0  0  0  0  0
  107.1653   67.0551   33.3920 H   0  0  0  0  0  0  0  0  0  0  0  0
  110.4891   69.0103   32.5945 H   0  0  0  0  0  0  0  0  0  0  0  0
  111.2749   68.5707   31.0402 H   0  0  0  0  0  0  0  0  0  0  0  0
  109.6486   69.3334   31.0402 H   0  0  0  0  0  0  0  0  0  0  0  0
  1  4  2  0
  1 12  1  0
  2  6  1  0
  2  8  2  0
  3  6  2  0
  3  9  1  0
  3 13  1  0
  4 10  1  0
  4 15  1  0
  5  8  1  0
  5  9  2  0
  5 14  1  0
  6 16  1  0
  7 11  1  0
  7 12  2  0
  7 17  1  0
  8 19  1  0
  9 24  1  0
 10 11  2  0
 10 24  1  0
 11 25  1  0
 12 26  1  0
 13 21  2  0
 13 25  1  0
 14 22  2  0
 15 20  1  0
 15 23  2  0
 18 26  1  0
  1 27  1  0
  2 28  1  0
 14 29  1  0
 16 30  1  0
 16 31  1  0
 16 32  1  0
 17 33  1  0
 17 34  1  0
 17 35  1  0
 18 36  1  0
 18 37  1  0
 18 38  1  0
M  CHG  2  19  -1  20  -1
M  END
>  <s_m_entry_id>  (25) 
22009

>  <s_m_Source_Path>  (25) 
C:\Users\vinicius\Downloads\Ligands_Ecoli

>  <s_m_Source_File>  (25) 
Ligands_Ecoli_o.sdf

>  <i_m_Source_File_Index>  (25) 
104

>  <i_f3d_flags>  (25) 
0

>  <r_epik_Ionization_Penalty>  (25) 
  0.0606

>  <r_epik_State_Penalty>  (25) 
  0.0525

>  <i_epik_Tot_Q>  (25) 
-2

>  <s_m_job_name>  (25) 
ligs_ecFabI_ligprep_2

>  <class_value>  (25) 
0

>  <FRED Chemgauss4 score>  (25) 
-7.559371

>  <Name>  (25) 
CHEMBL176570

>  <Set>  (25) 
training

>  <HBA count>  (25) 
8

>  <HBD count>  (25) 
0

>  <ExactMolWt>  (25) 
356.0543145038202

>  <NumRotatableBounds>  (25) 
6

>  <FractionCsp3>  (25) 
0.16666666666666666

>  <TPSA>  (25) 
125.02

>  <LogP_WildmanCrippen>  (25) 
0.8865400000000001

>  <General_Cluster>  (25) 
5

>  <Biological_Cluster>  (25) 
2

>  <Physicochemical_Cluster>  (25) 
8

>  <Structural_Cluster>  (25) 
2

$$$$
CHEMBL393500
     RDKit          3D

 36 38  0  0  0  0  0  0  0  0999 V2000
  107.0375   61.9259   43.3371 C   0  0  0  0  0  0  0  0  0  0  0  0
  111.2556   64.7151   34.2257 C   0  0  0  0  0  0  0  0  0  0  0  0
  110.8850   65.6386   33.2439 C   0  0  0  0  0  0  0  0  0  0  0  0
  108.3989   62.1354   42.9725 C   0  0  0  0  0  0  0  0  0  0  0  0
  109.7610   67.0063   34.9007 C   0  0  0  0  0  0  0  0  0  0  0  0
  106.3884   63.1086   43.6152 C   0  0  0  0  0  0  0  0  0  0  0  0
  110.8783   64.9312   35.5688 C   0  0  0  0  0  0  0  0  0  0  0  0
  110.1369   66.0747   35.8817 C   0  0  0  0  0  0  0  0  0  0  0  0
  110.1474   66.7687   33.5792 C   0  0  0  0  0  0  0  0  0  0  0  0
  108.7384   63.4705   42.9856 C   0  0  0  0  0  0  0  0  0  0  0  0
  110.6649   64.6165   37.7419 C   0  0  0  0  0  0  0  0  0  0  0  0
  110.1983   64.6292   40.2244 C   0  0  0  0  0  0  0  0  0  0  0  0
  111.0429   69.0684   32.2896 C   0  0  0  0  0  0  0  0  0  0  0  0
  110.0624   64.1010   42.6639 C   0  0  0  0  0  0  0  0  0  0  0  0
  111.1730   64.1063   36.6445 N   0  0  0  0  0  0  0  0  0  0  0  0
  110.7349   64.1069   39.0113 N   0  0  0  0  0  0  0  0  0  0  0  0
  110.4892   63.8045   41.3158 N   0  0  0  0  0  0  0  0  0  0  0  0
  109.5564   65.6722   40.3232 O   0  0  0  0  0  0  0  0  0  0  0  0
  109.6752   67.1972   31.0637 O   0  0  0  0  0  0  0  0  0  0  0  0
  108.5172   68.6418   32.7719 O   0  0  0  0  0  0  0  0  0  0  0  0
  107.4189   64.4645   43.4365 S   0  0  0  0  0  0  0  0  0  0  0  0
  109.8144   66.0913   37.5754 S   0  0  0  0  0  0  0  0  0  0  0  0
  109.6959   67.9084   32.3332 S   0  0  0  0  0  6  0  0  0  0  0  0
  106.5608   60.9360   43.3903 H   0  0  0  0  0  0  0  0  0  0  0  0
  111.8390   63.8234   33.9528 H   0  0  0  0  0  0  0  0  0  0  0  0
  111.1793   65.4699   32.1975 H   0  0  0  0  0  0  0  0  0  0  0  0
  109.0968   61.3262   42.7113 H   0  0  0  0  0  0  0  0  0  0  0  0
  109.1773   67.9002   35.1658 H   0  0  0  0  0  0  0  0  0  0  0  0
  105.3325   63.1743   43.9166 H   0  0  0  0  0  0  0  0  0  0  0  0
  111.3399   69.3242   33.3174 H   0  0  0  0  0  0  0  0  0  0  0  0
  111.8971   68.6187   31.7622 H   0  0  0  0  0  0  0  0  0  0  0  0
  110.7249   69.9799   31.7622 H   0  0  0  0  0  0  0  0  0  0  0  0
  109.9732   65.1916   42.7765 H   0  0  0  0  0  0  0  0  0  0  0  0
  110.8119   63.6897   43.3560 H   0  0  0  0  0  0  0  0  0  0  0  0
  111.2489   63.2190   39.1025 H   0  0  0  0  0  0  0  0  0  0  0  0
  111.0332   62.9456   41.1508 H   0  0  0  0  0  0  0  0  0  0  0  0
  1  4  1  0
  1  6  2  0
  2  3  2  0
  2  7  1  0
  3  9  1  0
  4 10  2  0
  5  8  1  0
  5  9  2  0
  6 21  1  0
  7  8  2  0
  7 15  1  0
  8 22  1  0
  9 23  1  0
 10 14  1  0
 10 21  1  0
 11 15  2  0
 11 16  1  0
 11 22  1  0
 12 16  1  0
 12 17  1  0
 12 18  2  0
 13 23  1  0
 14 17  1  0
 19 23  2  0
 20 23  2  0
  1 24  1  0
  2 25  1  0
  3 26  1  0
  4 27  1  0
  5 28  1  0
  6 29  1  0
 13 30  1  0
 13 31  1  0
 13 32  1  0
 14 33  1  0
 14 34  1  0
 16 35  1  0
 17 36  1  0
M  END
>  <s_m_entry_id>  (26) 
21899

>  <s_m_Source_Path>  (26) 
C:\Users\vinicius\Downloads\Ligands_Ecoli

>  <s_m_Source_File>  (26) 
Ligands_Ecoli_o.sdf

>  <i_m_Source_File_Index>  (26) 
54

>  <i_f3d_flags>  (26) 
0

>  <r_lp_tautomer_probability>  (26) 
1

>  <r_epik_Ionization_Penalty>  (26) 
  0.0016

>  <r_epik_State_Penalty>  (26) 
  0.0000

>  <i_epik_Tot_Q>  (26) 
0

>  <s_m_job_name>  (26) 
ligs_ecFabI_ligprep_2

>  <class_value>  (26) 
0

>  <FRED Chemgauss4 score>  (26) 
-13.646289

>  <Name>  (26) 
CHEMBL393500

>  <Set>  (26) 
training

>  <HBA count>  (26) 
6

>  <HBD count>  (26) 
2

>  <ExactMolWt>  (26) 
367.01190427600045

>  <NumRotatableBounds>  (26) 
5

>  <FractionCsp3>  (26) 
0.14285714285714285

>  <TPSA>  (26) 
88.16

>  <LogP_WildmanCrippen>  (26) 
3.083

>  <General_Cluster>  (26) 
3

>  <Biological_Cluster>  (26) 
2

>  <Physicochemical_Cluster>  (26) 
9

>  <Structural_Cluster>  (26) 
4

$$$$
CHEMBL237448
     RDKit          3D

 38 41  0  0  0  0  0  0  0  0999 V2000
  107.0195   65.6565   45.0486 C   0  0  0  0  0  0  0  0  0  0  0  0
  110.2045   68.9596   31.9444 C   0  0  0  0  0  0  0  0  0  0  0  0
  105.9059   64.8318   44.8731 C   0  0  0  0  0  0  0  0  0  0  0  0
  108.8961   68.5170   31.7840 C   0  0  0  0  0  0  0  0  0  0  0  0
  108.0479   65.6919   44.0985 C   0  0  0  0  0  0  0  0  0  0  0  0
  111.0898   68.2717   32.7794 C   0  0  0  0  0  0  0  0  0  0  0  0
  105.7785   64.0145   43.7451 C   0  0  0  0  0  0  0  0  0  0  0  0
  108.4376   67.3784   32.4515 C   0  0  0  0  0  0  0  0  0  0  0  0
  107.9365   64.8771   42.9592 C   0  0  0  0  0  0  0  0  0  0  0  0
  110.6522   67.1182   33.4657 C   0  0  0  0  0  0  0  0  0  0  0  0
  106.8147   64.0661   42.8122 C   0  0  0  0  0  0  0  0  0  0  0  0
  109.3322   66.6925   33.2887 C   0  0  0  0  0  0  0  0  0  0  0  0
  110.6846   65.3473   34.7810 C   0  0  0  0  0  0  0  0  0  0  0  0
  108.2107   63.8451   41.1100 C   0  0  0  0  0  0  0  0  0  0  0  0
  111.0303   63.7071   38.1492 C   0  0  0  0  0  0  0  0  0  0  0  0
  111.1808   64.3006   35.7361 C   0  0  0  0  0  0  0  0  0  0  0  0
  110.3653   64.1262   39.4392 C   0  0  0  0  0  0  0  0  0  0  0  0
  111.4140   66.3378   34.3232 N   0  0  0  0  0  0  0  0  0  0  0  0
  108.7923   64.7266   41.8922 N   0  0  0  0  0  0  0  0  0  0  0  0
  107.0168   63.4175   41.6209 N   0  0  0  0  0  0  0  0  0  0  0  0
  110.6844   64.5128   37.0768 N   0  0  0  0  0  0  0  0  0  0  0  0
  111.7832   62.7361   38.0956 O   0  0  0  0  0  0  0  0  0  0  0  0
  109.0657   65.2749   34.2333 S   0  0  0  0  0  0  0  0  0  0  0  0
  108.7914   63.2339   39.6079 S   0  0  0  0  0  0  0  0  0  0  0  0
  107.0898   66.2878   45.9467 H   0  0  0  0  0  0  0  0  0  0  0  0
  110.5457   69.8584   31.4099 H   0  0  0  0  0  0  0  0  0  0  0  0
  105.1140   64.8249   45.6365 H   0  0  0  0  0  0  0  0  0  0  0  0
  108.2131   69.0705   31.1229 H   0  0  0  0  0  0  0  0  0  0  0  0
  108.9231   66.3429   44.2410 H   0  0  0  0  0  0  0  0  0  0  0  0
  112.1234   68.6278   32.9012 H   0  0  0  0  0  0  0  0  0  0  0  0
  104.9041   63.3629   43.6006 H   0  0  0  0  0  0  0  0  0  0  0  0
  107.4025   67.0284   32.3244 H   0  0  0  0  0  0  0  0  0  0  0  0
  110.8466   63.3129   35.3857 H   0  0  0  0  0  0  0  0  0  0  0  0
  112.2787   64.3611   35.7665 H   0  0  0  0  0  0  0  0  0  0  0  0
  111.0206   63.8826   40.2884 H   0  0  0  0  0  0  0  0  0  0  0  0
  110.1794   65.2103   39.4272 H   0  0  0  0  0  0  0  0  0  0  0  0
  106.3825   62.7309   41.1883 H   0  0  0  0  0  0  0  0  0  0  0  0
  110.0425   65.3011   37.2428 H   0  0  0  0  0  0  0  0  0  0  0  0
  1  3  2  0
  1  5  1  0
  2  4  2  0
  2  6  1  0
  3  7  1  0
  4  8  1  0
  5  9  2  0
  6 10  2  0
  7 11  2  0
  8 12  2  0
  9 11  1  0
  9 19  1  0
 10 12  1  0
 10 18  1  0
 11 20  1  0
 12 23  1  0
 13 16  1  0
 13 18  2  0
 13 23  1  0
 14 19  2  0
 14 20  1  0
 14 24  1  0
 15 17  1  0
 15 21  1  0
 15 22  2  0
 16 21  1  0
 17 24  1  0
  1 25  1  0
  2 26  1  0
  3 27  1  0
  4 28  1  0
  5 29  1  0
  6 30  1  0
  7 31  1  0
  8 32  1  0
 16 33  1  0
 16 34  1  0
 17 35  1  0
 17 36  1  0
 20 37  1  0
 21 38  1  0
M  END
>  <s_m_entry_id>  (27) 
21929

>  <s_m_Source_Path>  (27) 
C:\Users\vinicius\Downloads\Ligands_Ecoli

>  <s_m_Source_File>  (27) 
Ligands_Ecoli_o.sdf

>  <i_m_Source_File_Index>  (27) 
68

>  <i_f3d_flags>  (27) 
0

>  <r_epik_Ionization_Penalty>  (27) 
  0.0051

>  <r_epik_State_Penalty>  (27) 
  0.0037

>  <i_epik_Tot_Q>  (27) 
0

>  <s_m_job_name>  (27) 
ligs_ecFabI_ligprep_2

>  <class_value>  (27) 
0

>  <FRED Chemgauss4 score>  (27) 
-14.444323

>  <Name>  (27) 
CHEMBL237448

>  <Set>  (27) 
training

>  <HBA count>  (27) 
5

>  <HBD count>  (27) 
2

>  <ExactMolWt>  (27) 
354.06090306800036

>  <NumRotatableBounds>  (27) 
5

>  <FractionCsp3>  (27) 
0.11764705882352941

>  <TPSA>  (27) 
70.67

>  <LogP_WildmanCrippen>  (27) 
3.581100000000002

>  <General_Cluster>  (27) 
3

>  <Biological_Cluster>  (27) 
2

>  <Physicochemical_Cluster>  (27) 
9

>  <Structural_Cluster>  (27) 
4

$$$$
CHEMBL576646
     RDKit          3D

 55 58  0  0  0  0  0  0  0  0999 V2000
  107.2699   69.1596   30.6902 C   0  0  0  0  0  0  0  0  0  0  0  0
  106.5274   68.3509   31.5543 C   0  0  0  0  0  0  0  0  0  0  0  0
  108.6521   69.3201   30.8589 C   0  0  0  0  0  0  0  0  0  0  0  0
  107.1354   67.6742   32.6159 C   0  0  0  0  0  0  0  0  0  0  0  0
  110.2208   66.4856   39.5467 C   0  0  0  0  0  0  0  0  0  0  0  0
  112.4672   66.1966   40.1774 C   0  0  0  0  0  0  0  0  0  0  0  0
  109.2844   68.6487   31.9200 C   0  0  0  0  0  0  0  0  0  0  0  0
  111.4933   66.0450   39.2224 C   0  0  0  0  0  0  0  0  0  0  0  0
  109.9391   67.0595   40.8041 C   0  0  0  0  0  0  0  0  0  0  0  0
  110.6121   68.5517   32.4136 C   0  0  0  0  0  0  0  0  0  0  0  0
  108.5103   67.8529   32.7583 C   0  0  0  0  0  0  0  0  0  0  0  0
  110.5601   67.7149   33.5043 C   0  0  0  0  0  0  0  0  0  0  0  0
  110.9919   67.1790   41.7219 C   0  0  0  0  0  0  0  0  0  0  0  0
  111.7850   65.4550   37.9297 C   0  0  0  0  0  0  0  0  0  0  0  0
  111.0357   65.6063   36.8115 C   0  0  0  0  0  0  0  0  0  0  0  0
  111.4249   64.9185   35.5451 C   0  0  0  0  0  0  0  0  0  0  0  0
  108.5235   67.5225   41.0378 C   0  0  0  0  0  0  0  0  0  0  0  0
  109.3349   69.5998   43.2317 C   0  0  0  0  0  0  0  0  0  0  0  0
  109.7793   68.2274   43.7271 C   0  0  0  0  0  0  0  0  0  0  0  0
  108.1394   69.5832   42.2809 C   0  0  0  0  0  0  0  0  0  0  0  0
  111.8117   69.2148   31.8675 C   0  0  0  0  0  0  0  0  0  0  0  0
  112.0428   65.1496   33.1700 C   0  0  0  0  0  0  0  0  0  0  0  0
  111.5989   67.2063   34.4616 C   0  0  0  0  0  0  0  0  0  0  0  0
  112.2439   66.7439   41.3909 N   0  0  0  0  0  0  0  0  0  0  0  0
  110.9090   67.7161   42.9832 N   0  0  0  0  0  0  0  0  0  0  0  0
  108.4051   68.9783   40.9792 N   0  0  0  0  0  0  0  0  0  0  0  0
  111.6857   65.7472   34.4501 N   0  0  0  0  0  0  0  0  0  0  0  0
  111.4758   63.6883   35.5077 O   0  0  0  0  0  0  0  0  0  0  0  0
  109.2895   67.2858   33.7219 O   0  0  0  0  0  0  0  0  0  0  0  0
  106.7616   69.6787   29.8642 H   0  0  0  0  0  0  0  0  0  0  0  0
  105.4440   68.2446   31.3964 H   0  0  0  0  0  0  0  0  0  0  0  0
  109.2304   69.9585   30.1748 H   0  0  0  0  0  0  0  0  0  0  0  0
  106.5598   67.0352   33.3017 H   0  0  0  0  0  0  0  0  0  0  0  0
  109.4123   66.3858   38.8076 H   0  0  0  0  0  0  0  0  0  0  0  0
  113.4852   65.8534   39.9411 H   0  0  0  0  0  0  0  0  0  0  0  0
  112.6892   64.8335   37.8510 H   0  0  0  0  0  0  0  0  0  0  0  0
  110.1362   66.2390   36.8367 H   0  0  0  0  0  0  0  0  0  0  0  0
  107.8743   67.0824   40.2665 H   0  0  0  0  0  0  0  0  0  0  0  0
  108.2226   67.1981   42.0449 H   0  0  0  0  0  0  0  0  0  0  0  0
  109.0668   70.2091   44.1074 H   0  0  0  0  0  0  0  0  0  0  0  0
  110.1796   70.0099   42.6587 H   0  0  0  0  0  0  0  0  0  0  0  0
  110.0608   68.3079   44.7874 H   0  0  0  0  0  0  0  0  0  0  0  0
  108.9400   67.5304   43.5868 H   0  0  0  0  0  0  0  0  0  0  0  0
  107.3267   69.0190   42.7617 H   0  0  0  0  0  0  0  0  0  0  0  0
  107.8803   70.6348   42.0883 H   0  0  0  0  0  0  0  0  0  0  0  0
  112.4458   69.5653   32.6952 H   0  0  0  0  0  0  0  0  0  0  0  0
  112.3763   68.5007   31.2501 H   0  0  0  0  0  0  0  0  0  0  0  0
  111.5073   70.0728   31.2501 H   0  0  0  0  0  0  0  0  0  0  0  0
  112.6000   64.2171   33.3434 H   0  0  0  0  0  0  0  0  0  0  0  0
  111.1280   64.9296   32.6001 H   0  0  0  0  0  0  0  0  0  0  0  0
  112.6700   65.8510   32.6001 H   0  0  0  0  0  0  0  0  0  0  0  0
  112.5770   67.6226   34.1786 H   0  0  0  0  0  0  0  0  0  0  0  0
  111.3107   67.5218   35.4752 H   0  0  0  0  0  0  0  0  0  0  0  0
  111.8066   67.7628   43.4862 H   0  0  0  0  0  0  0  0  0  0  0  0
  109.2865   69.3645   40.6118 H   0  0  0  0  0  0  0  0  0  0  0  0
  1  2  2  0
  1  3  1  0
  2  4  1  0
  3  7  2  0
  4 11  2  0
  5  8  2  0
  5  9  1  0
  6  8  1  0
  6 24  2  0
  7 10  1  0
  7 11  1  0
  8 14  1  0
  9 13  2  0
  9 17  1  0
 10 12  2  0
 10 21  1  0
 11 29  1  0
 12 23  1  0
 12 29  1  0
 13 24  1  0
 13 25  1  0
 14 15  2  0
 15 16  1  0
 16 27  1  0
 16 28  2  0
 17 26  1  0
 18 19  1  0
 18 20  1  0
 19 25  1  0
 20 26  1  0
 22 27  1  0
 23 27  1  0
  1 30  1  0
  2 31  1  0
  3 32  1  0
  4 33  1  0
  5 34  1  0
  6 35  1  0
 14 36  1  0
 15 37  1  0
 17 38  1  0
 17 39  1  0
 18 40  1  0
 18 41  1  0
 19 42  1  0
 19 43  1  0
 20 44  1  0
 20 45  1  0
 21 46  1  0
 21 47  1  0
 21 48  1  0
 22 49  1  0
 22 50  1  0
 22 51  1  0
 23 52  1  0
 23 53  1  0
 25 54  1  0
 26 55  1  0
M  END
>  <s_m_entry_id>  (28) 
21981

>  <s_m_Source_Path>  (28) 
C:\Users\vinicius\Downloads\Ligands_Ecoli

>  <s_m_Source_File>  (28) 
Ligands_Ecoli_o.sdf

>  <i_m_Source_File_Index>  (28) 
92

>  <i_f3d_flags>  (28) 
0

>  <r_epik_Ionization_Penalty>  (28) 
  1.3686

>  <r_epik_State_Penalty>  (28) 
  1.4000

>  <i_epik_Tot_Q>  (28) 
0

>  <s_m_job_name>  (28) 
ligs_ecFabI_ligprep_2

>  <class_value>  (28) 
1

>  <FRED Chemgauss4 score>  (28) 
-14.218094

>  <Name>  (28) 
CHEMBL576646

>  <Set>  (28) 
training

>  <HBA count>  (28) 
5

>  <HBD count>  (28) 
2

>  <ExactMolWt>  (28) 
390.2055760720008

>  <NumRotatableBounds>  (28) 
6

>  <FractionCsp3>  (28) 
0.30434782608695654

>  <TPSA>  (28) 
70.4

>  <LogP_WildmanCrippen>  (28) 
3.7132200000000024

>  <General_Cluster>  (28) 
1

>  <Biological_Cluster>  (28) 
1

>  <Physicochemical_Cluster>  (28) 
3

>  <Structural_Cluster>  (28) 
7

$$$$
CHEMBL72770
     RDKit          3D

 51 55  0  0  0  0  0  0  0  0999 V2000
  109.2694   69.0791   43.1424 C   0  0  0  0  0  0  0  0  0  0  0  0
  109.3401   68.1098   44.1405 C   0  0  0  0  0  0  0  0  0  0  0  0
  109.5486   68.7565   41.8096 C   0  0  0  0  0  0  0  0  0  0  0  0
  111.4775   64.7771   35.0065 C   0  0  0  0  0  0  0  0  0  0  0  0
  109.1698   65.3720   35.4031 C   0  0  0  0  0  0  0  0  0  0  0  0
  108.8541   63.1527   44.3172 C   0  0  0  0  0  0  0  0  0  0  0  0
  108.3041   63.0534   41.9667 C   0  0  0  0  0  0  0  0  0  0  0  0
  109.6905   66.7905   43.8404 C   0  0  0  0  0  0  0  0  0  0  0  0
  111.4220   65.3947   33.7570 C   0  0  0  0  0  0  0  0  0  0  0  0
  109.1142   65.9897   34.1537 C   0  0  0  0  0  0  0  0  0  0  0  0
  107.6299   62.5611   44.6286 C   0  0  0  0  0  0  0  0  0  0  0  0
  107.0799   62.4617   42.2782 C   0  0  0  0  0  0  0  0  0  0  0  0
  109.9052   67.4332   41.4811 C   0  0  0  0  0  0  0  0  0  0  0  0
  110.3514   64.7657   35.8295 C   0  0  0  0  0  0  0  0  0  0  0  0
  110.2451   66.7640   40.2741 C   0  0  0  0  0  0  0  0  0  0  0  0
  109.1911   63.3989   42.9862 C   0  0  0  0  0  0  0  0  0  0  0  0
  109.9671   66.4800   42.5039 C   0  0  0  0  0  0  0  0  0  0  0  0
  110.2404   66.0010   33.3307 C   0  0  0  0  0  0  0  0  0  0  0  0
  106.7429   62.2155   43.6092 C   0  0  0  0  0  0  0  0  0  0  0  0
  110.4959   65.4442   40.5846 C   0  0  0  0  0  0  0  0  0  0  0  0
  110.4098   64.1147   37.1471 C   0  0  0  0  0  0  0  0  0  0  0  0
  110.3365   67.2594   38.8741 C   0  0  0  0  0  0  0  0  0  0  0  0
  110.8949   64.3697   39.6386 C   0  0  0  0  0  0  0  0  0  0  0  0
  111.1912   66.2950   38.0339 C   0  0  0  0  0  0  0  0  0  0  0  0
  110.5119   64.0365   42.6494 C   0  0  0  0  0  0  0  0  0  0  0  0
  110.3304   65.2797   41.9299 N   0  0  0  0  0  0  0  0  0  0  0  0
  110.7977   64.8858   38.2492 N   0  0  0  0  0  0  0  0  0  0  0  0
  110.1019   62.9240   37.1812 O   0  0  0  0  0  0  0  0  0  0  0  0
  110.1859   66.6036   32.1115 O   0  0  0  0  0  0  0  0  0  0  0  0
  105.5684   61.6449   43.9080 F   0  0  0  0  0  0  0  0  0  0  0  0
  108.9908   70.1103   43.4051 H   0  0  0  0  0  0  0  0  0  0  0  0
  109.1166   68.3872   45.1812 H   0  0  0  0  0  0  0  0  0  0  0  0
  109.4904   69.5273   41.0270 H   0  0  0  0  0  0  0  0  0  0  0  0
  112.4094   64.2990   35.3428 H   0  0  0  0  0  0  0  0  0  0  0  0
  108.2818   65.3630   36.0522 H   0  0  0  0  0  0  0  0  0  0  0  0
  109.5537   63.4251   45.1212 H   0  0  0  0  0  0  0  0  0  0  0  0
  108.5699   63.2475   40.9171 H   0  0  0  0  0  0  0  0  0  0  0  0
  109.7469   66.0233   44.6267 H   0  0  0  0  0  0  0  0  0  0  0  0
  112.3100   65.4036   33.1079 H   0  0  0  0  0  0  0  0  0  0  0  0
  108.1824   66.4679   33.8175 H   0  0  0  0  0  0  0  0  0  0  0  0
  107.3640   62.3671   45.6782 H   0  0  0  0  0  0  0  0  0  0  0  0
  106.3803   62.1893   41.4743 H   0  0  0  0  0  0  0  0  0  0  0  0
  109.3266   67.3226   38.4426 H   0  0  0  0  0  0  0  0  0  0  0  0
  110.8042   68.2550   38.8713 H   0  0  0  0  0  0  0  0  0  0  0  0
  111.9305   64.0621   39.8458 H   0  0  0  0  0  0  0  0  0  0  0  0
  110.2289   63.5027   39.7597 H   0  0  0  0  0  0  0  0  0  0  0  0
  111.0647   66.5417   36.9694 H   0  0  0  0  0  0  0  0  0  0  0  0
  112.2407   66.4089   38.3431 H   0  0  0  0  0  0  0  0  0  0  0  0
  111.0595   64.2392   43.5816 H   0  0  0  0  0  0  0  0  0  0  0  0
  111.0766   63.3444   42.0075 H   0  0  0  0  0  0  0  0  0  0  0  0
  109.3472   67.0339   31.8091 H   0  0  0  0  0  0  0  0  0  0  0  0
  1  2  2  0
  1  3  1  0
  2  8  1  0
  3 13  2  0
  4  9  2  0
  4 14  1  0
  5 10  1  0
  5 14  2  0
  6 11  2  0
  6 16  1  0
  7 12  1  0
  7 16  2  0
  8 17  2  0
  9 18  1  0
 10 18  2  0
 11 19  1  0
 12 19  2  0
 13 15  1  0
 13 17  1  0
 14 21  1  0
 15 20  2  0
 15 22  1  0
 16 25  1  0
 17 26  1  0
 18 29  1  0
 19 30  1  0
 20 23  1  0
 20 26  1  0
 21 27  1  0
 21 28  2  0
 22 24  1  0
 23 27  1  0
 24 27  1  0
 25 26  1  0
  1 31  1  0
  2 32  1  0
  3 33  1  0
  4 34  1  0
  5 35  1  0
  6 36  1  0
  7 37  1  0
  8 38  1  0
  9 39  1  0
 10 40  1  0
 11 41  1  0
 12 42  1  0
 22 43  1  0
 22 44  1  0
 23 45  1  0
 23 46  1  0
 24 47  1  0
 24 48  1  0
 25 49  1  0
 25 50  1  0
 29 51  1  0
M  END
>  <s_m_entry_id>  (29) 
21838

>  <s_m_Source_Path>  (29) 
C:\Users\vinicius\Downloads\Ligands_Ecoli

>  <s_m_Source_File>  (29) 
Ligands_Ecoli_o.sdf

>  <i_m_Source_File_Index>  (29) 
22

>  <i_f3d_flags>  (29) 
0

>  <r_lp_tautomer_probability>  (29) 
0.999999999997365

>  <r_epik_Ionization_Penalty>  (29) 
  0.0358

>  <r_epik_State_Penalty>  (29) 
  0.0299

>  <i_epik_Tot_Q>  (29) 
0

>  <s_m_job_name>  (29) 
ligs_ecFabI_ligprep_2

>  <class_value>  (29) 
0

>  <FRED Chemgauss4 score>  (29) 
-12.791023

>  <Name>  (29) 
CHEMBL72770

>  <Set>  (29) 
training

>  <HBA count>  (29) 
3

>  <HBD count>  (29) 
1

>  <ExactMolWt>  (29) 
400.1587061320006

>  <NumRotatableBounds>  (29) 
4

>  <FractionCsp3>  (29) 
0.16

>  <TPSA>  (29) 
45.47

>  <LogP_WildmanCrippen>  (29) 
4.732800000000004

>  <General_Cluster>  (29) 
1

>  <Biological_Cluster>  (29) 
2

>  <Physicochemical_Cluster>  (29) 
2

>  <Structural_Cluster>  (29) 
7

$$$$
CHEMBL566665
     RDKit          3D

 64 68  0  0  0  0  0  0  0  0999 V2000
  107.0216   69.1273   30.5951 C   0  0  0  0  0  0  0  0  0  0  0  0
  106.0984   68.2726   31.1805 C   0  0  0  0  0  0  0  0  0  0  0  0
  108.3384   69.1694   31.0609 C   0  0  0  0  0  0  0  0  0  0  0  0
  106.4691   67.4434   32.2408 C   0  0  0  0  0  0  0  0  0  0  0  0
  110.0112   65.6404   39.7413 C   0  0  0  0  0  0  0  0  0  0  0  0
  112.3161   65.6351   40.3137 C   0  0  0  0  0  0  0  0  0  0  0  0
  108.7456   68.3410   32.1345 C   0  0  0  0  0  0  0  0  0  0  0  0
  111.3294   65.4034   39.3719 C   0  0  0  0  0  0  0  0  0  0  0  0
  109.7201   66.0790   41.0337 C   0  0  0  0  0  0  0  0  0  0  0  0
  110.0213   68.2073   32.7786 C   0  0  0  0  0  0  0  0  0  0  0  0
  107.7974   67.4882   32.7079 C   0  0  0  0  0  0  0  0  0  0  0  0
  110.0126   67.2832   33.7962 C   0  0  0  0  0  0  0  0  0  0  0  0
  110.7816   66.2776   41.9117 C   0  0  0  0  0  0  0  0  0  0  0  0
  109.2433   66.8866   43.7481 C   0  0  0  0  0  0  0  0  0  0  0  0
  111.6620   64.9412   38.0367 C   0  0  0  0  0  0  0  0  0  0  0  0
  110.8670   65.0575   36.9468 C   0  0  0  0  0  0  0  0  0  0  0  0
  111.3100   64.5109   35.6303 C   0  0  0  0  0  0  0  0  0  0  0  0
  108.3233   66.4292   41.4525 C   0  0  0  0  0  0  0  0  0  0  0  0
  106.7227   66.8222   43.3403 C   0  0  0  0  0  0  0  0  0  0  0  0
  108.0803   64.6944   43.2905 C   0  0  0  0  0  0  0  0  0  0  0  0
  106.1835   66.3862   44.7073 C   0  0  0  0  0  0  0  0  0  0  0  0
  107.5289   64.3829   44.6843 C   0  0  0  0  0  0  0  0  0  0  0  0
  108.0937   66.2095   42.9671 C   0  0  0  0  0  0  0  0  0  0  0  0
  111.2257   68.9848   32.3881 C   0  0  0  0  0  0  0  0  0  0  0  0
  105.6158   64.5359   46.1368 C   0  0  0  0  0  0  0  0  0  0  0  0
  111.8219   64.9736   33.2639 C   0  0  0  0  0  0  0  0  0  0  0  0
  111.1383   66.8641   34.6970 C   0  0  0  0  0  0  0  0  0  0  0  0
  112.0755   66.0734   41.5696 N   0  0  0  0  0  0  0  0  0  0  0  0
  110.5089   66.7490   43.2077 N   0  0  0  0  0  0  0  0  0  0  0  0
  106.1767   64.9266   44.8434 N   0  0  0  0  0  0  0  0  0  0  0  0
  111.4234   65.4347   34.5875 N   0  0  0  0  0  0  0  0  0  0  0  0
  109.0699   67.4472   44.8310 O   0  0  0  0  0  0  0  0  0  0  0  0
  111.5276   63.3044   35.5107 O   0  0  0  0  0  0  0  0  0  0  0  0
  108.4798   66.5643   33.9940 S   0  0  0  0  0  0  0  0  0  0  0  0
  106.7154   69.7749   29.7603 H   0  0  0  0  0  0  0  0  0  0  0  0
  105.0646   68.2481   30.8056 H   0  0  0  0  0  0  0  0  0  0  0  0
  109.0631   69.8503   30.5906 H   0  0  0  0  0  0  0  0  0  0  0  0
  105.7361   66.7663   32.7038 H   0  0  0  0  0  0  0  0  0  0  0  0
  109.1988   65.4827   39.0166 H   0  0  0  0  0  0  0  0  0  0  0  0
  113.3608   65.4513   40.0225 H   0  0  0  0  0  0  0  0  0  0  0  0
  112.6400   64.4568   37.8990 H   0  0  0  0  0  0  0  0  0  0  0  0
  109.8906   65.5569   37.0319 H   0  0  0  0  0  0  0  0  0  0  0  0
  108.1375   67.4873   41.2160 H   0  0  0  0  0  0  0  0  0  0  0  0
  107.6323   65.7694   40.9074 H   0  0  0  0  0  0  0  0  0  0  0  0
  105.9931   66.5254   42.5724 H   0  0  0  0  0  0  0  0  0  0  0  0
  106.8705   67.9109   43.3946 H   0  0  0  0  0  0  0  0  0  0  0  0
  109.1106   64.3140   43.2285 H   0  0  0  0  0  0  0  0  0  0  0  0
  107.4174   64.2087   42.5593 H   0  0  0  0  0  0  0  0  0  0  0  0
  106.8195   66.8154   45.4955 H   0  0  0  0  0  0  0  0  0  0  0  0
  105.1479   66.7455   44.7996 H   0  0  0  0  0  0  0  0  0  0  0  0
  107.4977   63.2923   44.8242 H   0  0  0  0  0  0  0  0  0  0  0  0
  108.1857   64.8469   45.4348 H   0  0  0  0  0  0  0  0  0  0  0  0
  111.7519   69.3245   33.2924 H   0  0  0  0  0  0  0  0  0  0  0  0
  111.8955   68.3482   31.7914 H   0  0  0  0  0  0  0  0  0  0  0  0
  110.9213   69.8573   31.7914 H   0  0  0  0  0  0  0  0  0  0  0  0
  106.2276   64.9621   46.9456 H   0  0  0  0  0  0  0  0  0  0  0  0
  104.5857   64.9129   46.2187 H   0  0  0  0  0  0  0  0  0  0  0  0
  105.6124   63.4390   46.2187 H   0  0  0  0  0  0  0  0  0  0  0  0
  112.5381   64.1448   33.3646 H   0  0  0  0  0  0  0  0  0  0  0  0
  110.9347   64.6267   32.7140 H   0  0  0  0  0  0  0  0  0  0  0  0
  112.2937   65.8012   32.7140 H   0  0  0  0  0  0  0  0  0  0  0  0
  112.0417   67.4286   34.4227 H   0  0  0  0  0  0  0  0  0  0  0  0
  110.8390   67.0726   35.7348 H   0  0  0  0  0  0  0  0  0  0  0  0
  111.3109   67.0113   43.7984 H   0  0  0  0  0  0  0  0  0  0  0  0
  1  2  2  0
  1  3  1  0
  2  4  1  0
  3  7  2  0
  4 11  2  0
  5  8  2  0
  5  9  1  0
  6  8  1  0
  6 28  2  0
  7 10  1  0
  7 11  1  0
  8 15  1  0
  9 13  2  0
  9 18  1  0
 10 12  2  0
 10 24  1  0
 11 34  1  0
 12 27  1  0
 12 34  1  0
 13 28  1  0
 13 29  1  0
 14 23  1  0
 14 29  1  0
 14 32  2  0
 15 16  2  0
 16 17  1  0
 17 31  1  0
 17 33  2  0
 18 23  1  0
 19 21  1  0
 19 23  1  0
 20 22  1  0
 20 23  1  0
 21 30  1  0
 22 30  1  0
 25 30  1  0
 26 31  1  0
 27 31  1  0
  1 35  1  0
  2 36  1  0
  3 37  1  0
  4 38  1  0
  5 39  1  0
  6 40  1  0
 15 41  1  0
 16 42  1  0
 18 43  1  0
 18 44  1  0
 19 45  1  0
 19 46  1  0
 20 47  1  0
 20 48  1  0
 21 49  1  0
 21 50  1  0
 22 51  1  0
 22 52  1  0
 24 53  1  0
 24 54  1  0
 24 55  1  0
 25 56  1  0
 25 57  1  0
 25 58  1  0
 26 59  1  0
 26 60  1  0
 26 61  1  0
 27 62  1  0
 27 63  1  0
 29 64  1  0
M  END
>  <s_m_entry_id>  (30) 
21989

>  <s_m_Source_Path>  (30) 
C:\Users\vinicius\Downloads\Ligands_Ecoli

>  <s_m_Source_File>  (30) 
Ligands_Ecoli_o.sdf

>  <i_m_Source_File_Index>  (30) 
96

>  <i_f3d_flags>  (30) 
0

>  <r_epik_Ionization_Penalty>  (30) 
  2.1744

>  <r_epik_State_Penalty>  (30) 
  2.3158

>  <i_epik_Tot_Q>  (30) 
0

>  <s_m_job_name>  (30) 
ligs_ecFabI_ligprep_2

>  <class_value>  (30) 
1

>  <FRED Chemgauss4 score>  (30) 
-16.201906

>  <Name>  (30) 
CHEMBL566665

>  <Set>  (30) 
training

>  <HBA count>  (30) 
5

>  <HBD count>  (30) 
1

>  <ExactMolWt>  (30) 
474.2089472000009

>  <NumRotatableBounds>  (30) 
7

>  <FractionCsp3>  (30) 
0.37037037037037035

>  <TPSA>  (30) 
65.54

>  <LogP_WildmanCrippen>  (30) 
4.483120000000004

>  <General_Cluster>  (30) 
4

>  <Biological_Cluster>  (30) 
1

>  <Physicochemical_Cluster>  (30) 
4

>  <Structural_Cluster>  (30) 
5

$$$$
CHEMBL244805
     RDKit          3D

 44 47  0  0  0  0  0  0  0  0999 V2000
  102.9455   64.4034   43.0858 C   0  0  0  0  0  0  0  0  0  0  0  0
  102.9151   65.5535   43.8666 C   0  0  0  0  0  0  0  0  0  0  0  0
  110.2682   66.2054   32.3406 C   0  0  0  0  0  0  0  0  0  0  0  0
  109.3466   67.4241   34.2121 C   0  0  0  0  0  0  0  0  0  0  0  0
  109.5710   67.0316   31.4592 C   0  0  0  0  0  0  0  0  0  0  0  0
  108.6495   68.2504   33.3306 C   0  0  0  0  0  0  0  0  0  0  0  0
  104.0374   63.5460   43.1632 C   0  0  0  0  0  0  0  0  0  0  0  0
  103.9929   65.7989   44.7020 C   0  0  0  0  0  0  0  0  0  0  0  0
  107.6473   64.7539   42.5099 C   0  0  0  0  0  0  0  0  0  0  0  0
  111.1988   64.2378   34.3782 C   0  0  0  0  0  0  0  0  0  0  0  0
  110.1560   66.4016   33.7171 C   0  0  0  0  0  0  0  0  0  0  0  0
  108.7617   68.0541   31.9542 C   0  0  0  0  0  0  0  0  0  0  0  0
  110.8731   65.5507   34.6247 C   0  0  0  0  0  0  0  0  0  0  0  0
  105.0650   63.8813   44.0300 C   0  0  0  0  0  0  0  0  0  0  0  0
  107.5625   63.4464   42.9404 C   0  0  0  0  0  0  0  0  0  0  0  0
  111.9182   64.8890   36.3569 C   0  0  0  0  0  0  0  0  0  0  0  0
  109.1950   63.8822   41.2236 C   0  0  0  0  0  0  0  0  0  0  0  0
  110.8124   64.6404   39.4376 C   0  0  0  0  0  0  0  0  0  0  0  0
  112.5766   64.7807   37.6721 C   0  0  0  0  0  0  0  0  0  0  0  0
  105.0709   64.9895   44.8042 N   0  0  0  0  0  0  0  0  0  0  0  0
  108.5831   65.0057   41.5257 N   0  0  0  0  0  0  0  0  0  0  0  0
  111.3240   65.9501   35.8579 N   0  0  0  0  0  0  0  0  0  0  0  0
  111.8683   63.8275   35.4966 N   0  0  0  0  0  0  0  0  0  0  0  0
  110.2211   63.6860   40.2700 N   0  0  0  0  0  0  0  0  0  0  0  0
  111.7903   64.0433   38.6379 N   0  0  0  0  0  0  0  0  0  0  0  0
  110.5404   65.8375   39.3871 O   0  0  0  0  0  0  0  0  0  0  0  0
  108.6946   62.4841   42.0838 S   0  0  0  0  0  0  0  0  0  0  0  0
  106.4934   62.8035   44.1624 S   0  0  0  0  0  0  0  0  0  0  0  0
  107.8161   69.1726   30.7599 Br  0  0  0  0  0  0  0  0  0  0  0  0
  102.1091   64.1728   42.4096 H   0  0  0  0  0  0  0  0  0  0  0  0
  102.0622   66.2468   43.8225 H   0  0  0  0  0  0  0  0  0  0  0  0
  110.9065   65.3991   31.9502 H   0  0  0  0  0  0  0  0  0  0  0  0
  109.2580   67.5788   35.2976 H   0  0  0  0  0  0  0  0  0  0  0  0
  109.6594   66.8768   30.3737 H   0  0  0  0  0  0  0  0  0  0  0  0
  108.0113   69.0568   33.7209 H   0  0  0  0  0  0  0  0  0  0  0  0
  104.0839   62.6303   42.5554 H   0  0  0  0  0  0  0  0  0  0  0  0
  103.9700   66.7084   45.3202 H   0  0  0  0  0  0  0  0  0  0  0  0
  107.0088   65.5476   42.9249 H   0  0  0  0  0  0  0  0  0  0  0  0
  110.9706   63.6475   33.4785 H   0  0  0  0  0  0  0  0  0  0  0  0
  113.5410   64.2683   37.5404 H   0  0  0  0  0  0  0  0  0  0  0  0
  112.7045   65.8014   38.0617 H   0  0  0  0  0  0  0  0  0  0  0  0
  112.2629   62.8905   35.6613 H   0  0  0  0  0  0  0  0  0  0  0  0
  110.5754   62.7233   40.1779 H   0  0  0  0  0  0  0  0  0  0  0  0
  111.9593   63.0324   38.7404 H   0  0  0  0  0  0  0  0  0  0  0  0
  1  2  2  0
  1  7  1  0
  2  8  1  0
  3  5  2  0
  3 11  1  0
  4  6  1  0
  4 11  2  0
  5 12  1  0
  6 12  2  0
  7 14  2  0
  8 20  2  0
  9 15  2  0
  9 21  1  0
 10 13  2  0
 10 23  1  0
 11 13  1  0
 12 29  1  0
 13 22  1  0
 14 20  1  0
 14 28  1  0
 15 27  1  0
 15 28  1  0
 16 19  1  0
 16 22  2  0
 16 23  1  0
 17 21  2  0
 17 24  1  0
 17 27  1  0
 18 24  1  0
 18 25  1  0
 18 26  2  0
 19 25  1  0
  1 30  1  0
  2 31  1  0
  3 32  1  0
  4 33  1  0
  5 34  1  0
  6 35  1  0
  7 36  1  0
  8 37  1  0
  9 38  1  0
 10 39  1  0
 19 40  1  0
 19 41  1  0
 23 42  1  0
 24 43  1  0
 25 44  1  0
M  END
>  <s_m_entry_id>  (31) 
21905

>  <s_m_Source_Path>  (31) 
C:\Users\vinicius\Downloads\Ligands_Ecoli

>  <s_m_Source_File>  (31) 
Ligands_Ecoli_o.sdf

>  <i_m_Source_File_Index>  (31) 
58

>  <i_f3d_flags>  (31) 
0

>  <r_lp_tautomer_probability>  (31) 
0.49950024419958

>  <r_epik_Ionization_Penalty>  (31) 
  0.0629

>  <r_epik_State_Penalty>  (31) 
  0.3777

>  <i_epik_Tot_Q>  (31) 
0

>  <s_m_job_name>  (31) 
ligs_ecFabI_ligprep_2

>  <class_value>  (31) 
0

>  <FRED Chemgauss4 score>  (31) 
-14.458822

>  <Name>  (31) 
CHEMBL244805

>  <Set>  (31) 
training

>  <HBA count>  (31) 
6

>  <HBD count>  (31) 
3

>  <ExactMolWt>  (31) 
485.9932132000006

>  <NumRotatableBounds>  (31) 
6

>  <FractionCsp3>  (31) 
0.05263157894736842

>  <TPSA>  (31) 
95.59

>  <LogP_WildmanCrippen>  (31) 
5.1636000000000015

>  <General_Cluster>  (31) 
3

>  <Biological_Cluster>  (31) 
2

>  <Physicochemical_Cluster>  (31) 
7

>  <Structural_Cluster>  (31) 
4

$$$$
CHEMBL307383
     RDKit          3D

 47 50  0  0  0  0  0  0  0  0999 V2000
  109.7465   68.3723   42.8909 C   0  0  0  0  0  0  0  0  0  0  0  0
  109.4021   67.3213   43.7381 C   0  0  0  0  0  0  0  0  0  0  0  0
  110.0681   68.1354   41.5497 C   0  0  0  0  0  0  0  0  0  0  0  0
  111.4771   64.5703   34.3983 C   0  0  0  0  0  0  0  0  0  0  0  0
  109.4296   65.8156   34.7049 C   0  0  0  0  0  0  0  0  0  0  0  0
  109.3674   66.0034   43.2742 C   0  0  0  0  0  0  0  0  0  0  0  0
  111.7583   65.3147   33.2527 C   0  0  0  0  0  0  0  0  0  0  0  0
  109.7108   66.5601   33.5593 C   0  0  0  0  0  0  0  0  0  0  0  0
  110.0413   66.8149   41.0577 C   0  0  0  0  0  0  0  0  0  0  0  0
  110.3127   64.8207   35.1244 C   0  0  0  0  0  0  0  0  0  0  0  0
  110.3003   66.2179   39.7941 C   0  0  0  0  0  0  0  0  0  0  0  0
  109.6907   65.7791   41.9310 C   0  0  0  0  0  0  0  0  0  0  0  0
  110.8752   66.3096   32.8332 C   0  0  0  0  0  0  0  0  0  0  0  0
  110.1001   64.8599   39.9249 C   0  0  0  0  0  0  0  0  0  0  0  0
  110.0161   64.0360   36.3325 C   0  0  0  0  0  0  0  0  0  0  0  0
  108.0517   63.1966   42.3205 C   0  0  0  0  0  0  0  0  0  0  0  0
  110.7010   66.8182   38.4930 C   0  0  0  0  0  0  0  0  0  0  0  0
  110.2612   63.8322   38.8636 C   0  0  0  0  0  0  0  0  0  0  0  0
  111.3140   65.7373   37.5862 C   0  0  0  0  0  0  0  0  0  0  0  0
  106.7888   62.0852   43.9845 C   0  0  0  0  0  0  0  0  0  0  0  0
  109.4461   63.2895   41.7556 C   0  0  0  0  0  0  0  0  0  0  0  0
  109.7364   64.6010   41.2153 N   0  0  0  0  0  0  0  0  0  0  0  0
  110.4885   64.5106   37.5619 N   0  0  0  0  0  0  0  0  0  0  0  0
  109.3591   63.0089   36.1680 O   0  0  0  0  0  0  0  0  0  0  0  0
  107.0835   63.8324   41.9264 O   0  0  0  0  0  0  0  0  0  0  0  0
  111.1492   67.0359   31.7153 O   0  0  0  0  0  0  0  0  0  0  0  0
  108.0510   62.2877   43.3407 O   0  0  0  0  0  0  0  0  0  0  0  0
  109.7659   69.4007   43.2809 H   0  0  0  0  0  0  0  0  0  0  0  0
  109.1536   67.5321   44.7887 H   0  0  0  0  0  0  0  0  0  0  0  0
  110.3388   68.9705   40.8868 H   0  0  0  0  0  0  0  0  0  0  0  0
  112.1736   63.7858   34.7291 H   0  0  0  0  0  0  0  0  0  0  0  0
  108.5114   66.0131   35.2775 H   0  0  0  0  0  0  0  0  0  0  0  0
  109.0956   65.1719   43.9411 H   0  0  0  0  0  0  0  0  0  0  0  0
  112.6765   65.1172   32.6801 H   0  0  0  0  0  0  0  0  0  0  0  0
  109.0144   67.3447   33.2285 H   0  0  0  0  0  0  0  0  0  0  0  0
  109.8159   67.2482   38.0014 H   0  0  0  0  0  0  0  0  0  0  0  0
  111.4462   67.6073   38.6717 H   0  0  0  0  0  0  0  0  0  0  0  0
  111.1226   63.1902   39.1000 H   0  0  0  0  0  0  0  0  0  0  0  0
  109.3538   63.2131   38.8058 H   0  0  0  0  0  0  0  0  0  0  0  0
  111.3937   66.1336   36.5632 H   0  0  0  0  0  0  0  0  0  0  0  0
  112.3048   65.4758   37.9862 H   0  0  0  0  0  0  0  0  0  0  0  0
  106.9261   62.1072   45.0757 H   0  0  0  0  0  0  0  0  0  0  0  0
  106.0929   62.8832   43.6863 H   0  0  0  0  0  0  0  0  0  0  0  0
  106.3774   61.1096   43.6863 H   0  0  0  0  0  0  0  0  0  0  0  0
  110.1672   63.0699   42.5568 H   0  0  0  0  0  0  0  0  0  0  0  0
  109.5239   62.5632   40.9332 H   0  0  0  0  0  0  0  0  0  0  0  0
  110.5223   67.7420   31.4177 H   0  0  0  0  0  0  0  0  0  0  0  0
  1  2  2  0
  1  3  1  0
  2  6  1  0
  3  9  2  0
  4  7  2  0
  4 10  1  0
  5  8  1  0
  5 10  2  0
  6 12  2  0
  7 13  1  0
  8 13  2  0
  9 11  1  0
  9 12  1  0
 10 15  1  0
 11 14  2  0
 11 17  1  0
 12 22  1  0
 13 26  1  0
 14 18  1  0
 14 22  1  0
 15 23  1  0
 15 24  2  0
 16 21  1  0
 16 25  2  0
 16 27  1  0
 17 19  1  0
 18 23  1  0
 19 23  1  0
 20 27  1  0
 21 22  1  0
  1 28  1  0
  2 29  1  0
  3 30  1  0
  4 31  1  0
  5 32  1  0
  6 33  1  0
  7 34  1  0
  8 35  1  0
 17 36  1  0
 17 37  1  0
 18 38  1  0
 18 39  1  0
 19 40  1  0
 19 41  1  0
 20 42  1  0
 20 43  1  0
 20 44  1  0
 21 45  1  0
 21 46  1  0
 26 47  1  0
M  END
>  <s_m_entry_id>  (32) 
21813

>  <s_m_Source_Path>  (32) 
C:\Users\vinicius\Downloads\Ligands_Ecoli

>  <s_m_Source_File>  (32) 
Ligands_Ecoli_o.sdf

>  <i_m_Source_File_Index>  (32) 
6

>  <i_f3d_flags>  (32) 
0

>  <r_lp_tautomer_probability>  (32) 
0.999999999997365

>  <r_epik_Ionization_Penalty>  (32) 
  0.0358

>  <r_epik_State_Penalty>  (32) 
  0.0299

>  <i_epik_Tot_Q>  (32) 
0

>  <s_m_job_name>  (32) 
ligs_ecFabI_ligprep_2

>  <class_value>  (32) 
0

>  <FRED Chemgauss4 score>  (32) 
-12.440285

>  <Name>  (32) 
CHEMBL307383

>  <Set>  (32) 
training

>  <HBA count>  (32) 
5

>  <HBD count>  (32) 
1

>  <ExactMolWt>  (32) 
364.1423071200005

>  <NumRotatableBounds>  (32) 
5

>  <FractionCsp3>  (32) 
0.23809523809523808

>  <TPSA>  (32) 
71.77000000000001

>  <LogP_WildmanCrippen>  (32) 
2.7184000000000013

>  <General_Cluster>  (32) 
1

>  <Biological_Cluster>  (32) 
2

>  <Physicochemical_Cluster>  (32) 
3

>  <Structural_Cluster>  (32) 
7

$$$$
CHEMBL2178295
     RDKit          3D

 50 52  0  0  0  0  0  0  0  0999 V2000
  107.1549   64.7246   45.2529 C   0  0  0  0  0  0  0  0  0  0  0  0
  107.7360   65.7608   45.9754 C   0  0  0  0  0  0  0  0  0  0  0  0
  111.1552   66.4958   32.7692 C   0  0  0  0  0  0  0  0  0  0  0  0
  111.7573   65.6210   33.6735 C   0  0  0  0  0  0  0  0  0  0  0  0
  112.0519   65.6513   37.3476 C   0  0  0  0  0  0  0  0  0  0  0  0
  111.9791   65.9652   38.7047 C   0  0  0  0  0  0  0  0  0  0  0  0
  107.0153   64.8388   43.8742 C   0  0  0  0  0  0  0  0  0  0  0  0
  109.0167   66.1187   33.8282 C   0  0  0  0  0  0  0  0  0  0  0  0
  110.8359   63.8788   39.1259 C   0  0  0  0  0  0  0  0  0  0  0  0
  108.1578   66.8811   45.2777 C   0  0  0  0  0  0  0  0  0  0  0  0
  109.7849   66.7447   32.8466 C   0  0  0  0  0  0  0  0  0  0  0  0
  110.9891   64.9949   34.6551 C   0  0  0  0  0  0  0  0  0  0  0  0
  111.5166   64.4512   36.8796 C   0  0  0  0  0  0  0  0  0  0  0  0
  109.6188   65.2438   34.7325 C   0  0  0  0  0  0  0  0  0  0  0  0
  110.9086   63.5650   37.7687 C   0  0  0  0  0  0  0  0  0  0  0  0
  111.3711   65.0789   39.5939 C   0  0  0  0  0  0  0  0  0  0  0  0
  107.4691   66.0005   43.2706 C   0  0  0  0  0  0  0  0  0  0  0  0
  109.1385   69.1230   32.3855 C   0  0  0  0  0  0  0  0  0  0  0  0
  109.1415   67.6821   31.8814 C   0  0  0  0  0  0  0  0  0  0  0  0
  107.3336   66.1588   41.7761 C   0  0  0  0  0  0  0  0  0  0  0  0
  108.5454   65.6349   41.0093 C   0  0  0  0  0  0  0  0  0  0  0  0
  108.0389   67.0282   43.9391 N   0  0  0  0  0  0  0  0  0  0  0  0
  109.7930   66.3081   41.3979 N   0  0  0  0  0  0  0  0  0  0  0  0
  111.1736   64.2349   42.0553 O   0  0  0  0  0  0  0  0  0  0  0  0
  112.3593   66.4037   41.5918 O   0  0  0  0  0  0  0  0  0  0  0  0
  108.8581   64.6377   35.6862 O   0  0  0  0  0  0  0  0  0  0  0  0
  111.5893   64.1425   35.5322 O   0  0  0  0  0  0  0  0  0  0  0  0
  110.3921   62.4107   37.3255 F   0  0  0  0  0  0  0  0  0  0  0  0
  111.2799   65.4721   41.2925 S   0  0  0  0  0  6  0  0  0  0  0  0
  106.8070   63.8182   45.7700 H   0  0  0  0  0  0  0  0  0  0  0  0
  107.8570   65.6932   47.0666 H   0  0  0  0  0  0  0  0  0  0  0  0
  111.7610   66.9894   31.9950 H   0  0  0  0  0  0  0  0  0  0  0  0
  112.8380   65.4249   33.6126 H   0  0  0  0  0  0  0  0  0  0  0  0
  112.5314   66.3501   36.6464 H   0  0  0  0  0  0  0  0  0  0  0  0
  112.4011   66.9116   39.0737 H   0  0  0  0  0  0  0  0  0  0  0  0
  106.5590   64.0323   43.2814 H   0  0  0  0  0  0  0  0  0  0  0  0
  107.9361   66.3150   33.8892 H   0  0  0  0  0  0  0  0  0  0  0  0
  110.3565   63.1799   39.8271 H   0  0  0  0  0  0  0  0  0  0  0  0
  108.6178   67.7014   45.8482 H   0  0  0  0  0  0  0  0  0  0  0  0
  109.1385   69.1266   33.4855 H   0  0  0  0  0  0  0  0  0  0  0  0
  110.0356   69.6422   32.0171 H   0  0  0  0  0  0  0  0  0  0  0  0
  108.2393   69.6385   32.0171 H   0  0  0  0  0  0  0  0  0  0  0  0
  109.6913   67.6418   30.9295 H   0  0  0  0  0  0  0  0  0  0  0  0
  108.0948   67.3682   31.7552 H   0  0  0  0  0  0  0  0  0  0  0  0
  106.4426   65.6056   41.4442 H   0  0  0  0  0  0  0  0  0  0  0  0
  107.2504   67.2352   41.5651 H   0  0  0  0  0  0  0  0  0  0  0  0
  108.6494   64.5579   41.2076 H   0  0  0  0  0  0  0  0  0  0  0  0
  108.3766   65.8357   39.9410 H   0  0  0  0  0  0  0  0  0  0  0  0
  109.8784   67.1441   40.8023 H   0  0  0  0  0  0  0  0  0  0  0  0
  109.2772   64.0153   36.3320 H   0  0  0  0  0  0  0  0  0  0  0  0
  1  2  2  0
  1  7  1  0
  2 10  1  0
  3  4  2  0
  3 11  1  0
  4 12  1  0
  5  6  2  0
  5 13  1  0
  6 16  1  0
  7 17  2  0
  8 11  2  0
  8 14  1  0
  9 15  1  0
  9 16  2  0
 10 22  2  0
 11 19  1  0
 12 14  2  0
 12 27  1  0
 13 15  2  0
 13 27  1  0
 14 26  1  0
 15 28  1  0
 16 29  1  0
 17 20  1  0
 17 22  1  0
 18 19  1  0
 20 21  1  0
 21 23  1  0
 23 29  1  0
 24 29  2  0
 25 29  2  0
  1 30  1  0
  2 31  1  0
  3 32  1  0
  4 33  1  0
  5 34  1  0
  6 35  1  0
  7 36  1  0
  8 37  1  0
  9 38  1  0
 10 39  1  0
 18 40  1  0
 18 41  1  0
 18 42  1  0
 19 43  1  0
 19 44  1  0
 20 45  1  0
 20 46  1  0
 21 47  1  0
 21 48  1  0
 23 49  1  0
 26 50  1  0
M  END
>  <s_m_entry_id>  (33) 
22052

>  <s_m_Source_Path>  (33) 
C:\Users\vinicius\Downloads\Ligands_Ecoli

>  <s_m_Source_File>  (33) 
Ligands_Ecoli_o.sdf

>  <i_m_Source_File_Index>  (33) 
132

>  <i_f3d_flags>  (33) 
0

>  <r_lp_tautomer_probability>  (33) 
1

>  <r_epik_Ionization_Penalty>  (33) 
  0.0704

>  <r_epik_State_Penalty>  (33) 
  0.0602

>  <i_epik_Tot_Q>  (33) 
0

>  <s_m_job_name>  (33) 
ligs_ecFabI_ligprep_2

>  <class_value>  (33) 
1

>  <FRED Chemgauss4 score>  (33) 
-15.674367

>  <Name>  (33) 
CHEMBL2178295

>  <Set>  (33) 
training

>  <HBA count>  (33) 
5

>  <HBD count>  (33) 
2

>  <ExactMolWt>  (33) 
416.12060637200057

>  <NumRotatableBounds>  (33) 
10

>  <FractionCsp3>  (33) 
0.19047619047619047

>  <TPSA>  (33) 
88.52000000000001

>  <LogP_WildmanCrippen>  (33) 
3.8020000000000027

>  <General_Cluster>  (33) 
4

>  <Biological_Cluster>  (33) 
1

>  <Physicochemical_Cluster>  (33) 
3

>  <Structural_Cluster>  (33) 
6

$$$$
CHEMBL2178313
     RDKit          3D

 34 35  0  0  0  0  0  0  0  0999 V2000
  112.2072   65.4475   39.6652 C   0  0  0  0  0  0  0  0  0  0  0  0
  109.0504   66.4681   33.9553 C   0  0  0  0  0  0  0  0  0  0  0  0
  111.6427   64.1725   39.7033 C   0  0  0  0  0  0  0  0  0  0  0  0
  109.1378   65.6238   35.0621 C   0  0  0  0  0  0  0  0  0  0  0  0
  111.1290   65.5736   33.1088 C   0  0  0  0  0  0  0  0  0  0  0  0
  111.4701   65.7057   37.3790 C   0  0  0  0  0  0  0  0  0  0  0  0
  110.0460   66.4430   32.9786 C   0  0  0  0  0  0  0  0  0  0  0  0
  112.1208   66.2141   38.5031 C   0  0  0  0  0  0  0  0  0  0  0  0
  110.9920   63.6641   38.5791 C   0  0  0  0  0  0  0  0  0  0  0  0
  111.2165   64.7294   34.2158 C   0  0  0  0  0  0  0  0  0  0  0  0
  110.2208   64.7545   35.1924 C   0  0  0  0  0  0  0  0  0  0  0  0
  110.9056   64.4307   37.4169 C   0  0  0  0  0  0  0  0  0  0  0  0
  112.7241   67.5774   38.4631 C   0  0  0  0  0  0  0  0  0  0  0  0
  110.6296   68.6928   32.0382 C   0  0  0  0  0  0  0  0  0  0  0  0
  109.9523   67.3465   31.7956 C   0  0  0  0  0  0  0  0  0  0  0  0
  110.4256   62.3717   38.6314 N   0  0  0  0  0  0  0  0  0  0  0  0
  112.2195   63.9362   34.3196 O   0  0  0  0  0  1  0  0  0  0  0  0
  110.2646   63.9452   36.2926 O   0  0  0  0  0  0  0  0  0  0  0  0
  112.7205   65.8484   40.5516 H   0  0  0  0  0  0  0  0  0  0  0  0
  108.1964   67.1537   33.8526 H   0  0  0  0  0  0  0  0  0  0  0  0
  111.7107   63.5680   40.6198 H   0  0  0  0  0  0  0  0  0  0  0  0
  108.3526   65.6435   35.8322 H   0  0  0  0  0  0  0  0  0  0  0  0
  111.9140   65.5537   32.3385 H   0  0  0  0  0  0  0  0  0  0  0  0
  111.4021   66.3102   36.4625 H   0  0  0  0  0  0  0  0  0  0  0  0
  112.8837   67.9380   39.4900 H   0  0  0  0  0  0  0  0  0  0  0  0
  113.6881   67.5364   37.9349 H   0  0  0  0  0  0  0  0  0  0  0  0
  112.0455   68.2633   37.9349 H   0  0  0  0  0  0  0  0  0  0  0  0
  110.7182   68.8689   33.1204 H   0  0  0  0  0  0  0  0  0  0  0  0
  111.6317   68.6862   31.5845 H   0  0  0  0  0  0  0  0  0  0  0  0
  110.0270   69.4935   31.5845 H   0  0  0  0  0  0  0  0  0  0  0  0
  110.4362   66.8569   30.9376 H   0  0  0  0  0  0  0  0  0  0  0  0
  108.8864   67.5368   31.6018 H   0  0  0  0  0  0  0  0  0  0  0  0
  109.9430   61.9872   37.8067 H   0  0  0  0  0  0  0  0  0  0  0  0
  110.4950   61.8135   39.4942 H   0  0  0  0  0  0  0  0  0  0  0  0
  1  3  2  0
  1  8  1  0
  2  4  2  0
  2  7  1  0
  3  9  1  0
  4 11  1  0
  5  7  2  0
  5 10  1  0
  6  8  2  0
  6 12  1  0
  7 15  1  0
  8 13  1  0
  9 12  2  0
  9 16  1  0
 10 11  2  0
 10 17  1  0
 11 18  1  0
 12 18  1  0
 14 15  1  0
  1 19  1  0
  2 20  1  0
  3 21  1  0
  4 22  1  0
  5 23  1  0
  6 24  1  0
 13 25  1  0
 13 26  1  0
 13 27  1  0
 14 28  1  0
 14 29  1  0
 14 30  1  0
 15 31  1  0
 15 32  1  0
 16 33  1  0
 16 34  1  0
M  CHG  1  17  -1
M  END
>  <s_m_entry_id>  (34) 
22055

>  <s_m_Source_Path>  (34) 
C:\Users\vinicius\Downloads\Ligands_Ecoli

>  <s_m_Source_File>  (34) 
Ligands_Ecoli_o.sdf

>  <i_m_Source_File_Index>  (34) 
133

>  <i_f3d_flags>  (34) 
0

>  <r_epik_Ionization_Penalty>  (34) 
  1.5018

>  <r_epik_State_Penalty>  (34) 
  1.5899

>  <i_epik_Tot_Q>  (34) 
-1

>  <s_m_job_name>  (34) 
ligs_ecFabI_ligprep_2

>  <class_value>  (34) 
0

>  <FRED Chemgauss4 score>  (34) 
-16.507168

>  <Name>  (34) 
CHEMBL2178313

>  <Set>  (34) 
training

>  <HBA count>  (34) 
3

>  <HBD count>  (34) 
1

>  <ExactMolWt>  (34) 
242.11865233191

>  <NumRotatableBounds>  (34) 
6

>  <FractionCsp3>  (34) 
0.2

>  <TPSA>  (34) 
58.31

>  <LogP_WildmanCrippen>  (34) 
3.0055200000000006

>  <General_Cluster>  (34) 
2

>  <Biological_Cluster>  (34) 
2

>  <Physicochemical_Cluster>  (34) 
6

>  <Structural_Cluster>  (34) 
3

$$$$
CHEMBL570866
     RDKit          3D

 51 54  0  0  0  0  0  0  0  0999 V2000
  106.8113   68.2744   31.3555 C   0  0  0  0  0  0  0  0  0  0  0  0
  107.6647   69.3080   30.9611 C   0  0  0  0  0  0  0  0  0  0  0  0
  107.2460   67.2739   32.2356 C   0  0  0  0  0  0  0  0  0  0  0  0
  108.9800   69.3810   31.4294 C   0  0  0  0  0  0  0  0  0  0  0  0
  110.0421   63.0867   38.9089 C   0  0  0  0  0  0  0  0  0  0  0  0
  110.8971   65.2849   38.9403 C   0  0  0  0  0  0  0  0  0  0  0  0
  108.5650   67.3277   32.7192 C   0  0  0  0  0  0  0  0  0  0  0  0
  110.7121   64.1072   38.2527 C   0  0  0  0  0  0  0  0  0  0  0  0
  109.5706   63.2612   40.2209 C   0  0  0  0  0  0  0  0  0  0  0  0
  109.3601   66.5391   33.5921 C   0  0  0  0  0  0  0  0  0  0  0  0
  109.3834   68.3727   32.3029 C   0  0  0  0  0  0  0  0  0  0  0  0
  110.5928   67.1471   33.6494 C   0  0  0  0  0  0  0  0  0  0  0  0
  109.8205   64.4887   40.8590 C   0  0  0  0  0  0  0  0  0  0  0  0
  107.5569   63.3205   42.6333 C   0  0  0  0  0  0  0  0  0  0  0  0
  111.1989   63.9414   36.8961 C   0  0  0  0  0  0  0  0  0  0  0  0
  112.1657   64.6895   36.3131 C   0  0  0  0  0  0  0  0  0  0  0  0
  112.5575   64.4412   34.8943 C   0  0  0  0  0  0  0  0  0  0  0  0
  108.8562   62.1064   40.8735 C   0  0  0  0  0  0  0  0  0  0  0  0
  108.8861   63.8449   43.1146 C   0  0  0  0  0  0  0  0  0  0  0  0
  108.9490   65.3111   34.2992 C   0  0  0  0  0  0  0  0  0  0  0  0
  112.7225   65.3402   32.6050 C   0  0  0  0  0  0  0  0  0  0  0  0
  111.8651   66.8273   34.3795 C   0  0  0  0  0  0  0  0  0  0  0  0
  110.4719   65.4914   40.2058 N   0  0  0  0  0  0  0  0  0  0  0  0
  109.4279   64.7775   42.1529 N   0  0  0  0  0  0  0  0  0  0  0  0
  107.6217   62.5012   41.5263 N   0  0  0  0  0  0  0  0  0  0  0  0
  112.3904   65.5134   34.0133 N   0  0  0  0  0  0  0  0  0  0  0  0
  106.5025   63.6120   43.1959 O   0  0  0  0  0  0  0  0  0  0  0  0
  112.9756   63.3316   34.5603 O   0  0  0  0  0  0  0  0  0  0  0  0
  110.6172   68.2601   32.8706 O   0  0  0  0  0  0  0  0  0  0  0  0
  105.7818   68.2454   30.9691 H   0  0  0  0  0  0  0  0  0  0  0  0
  107.2947   70.0789   30.2691 H   0  0  0  0  0  0  0  0  0  0  0  0
  106.5688   66.4629   32.5418 H   0  0  0  0  0  0  0  0  0  0  0  0
  109.6597   70.1905   31.1249 H   0  0  0  0  0  0  0  0  0  0  0  0
  109.8773   62.1277   38.3959 H   0  0  0  0  0  0  0  0  0  0  0  0
  111.4218   66.1059   38.4297 H   0  0  0  0  0  0  0  0  0  0  0  0
  110.7454   63.1423   36.2913 H   0  0  0  0  0  0  0  0  0  0  0  0
  112.6645   65.4838   36.8878 H   0  0  0  0  0  0  0  0  0  0  0  0
  108.6214   61.3581   40.1022 H   0  0  0  0  0  0  0  0  0  0  0  0
  109.5238   61.7010   41.6481 H   0  0  0  0  0  0  0  0  0  0  0  0
  108.7485   64.3554   44.0792 H   0  0  0  0  0  0  0  0  0  0  0  0
  109.5842   63.0032   43.2337 H   0  0  0  0  0  0  0  0  0  0  0  0
  109.0046   65.4772   35.3852 H   0  0  0  0  0  0  0  0  0  0  0  0
  107.9163   65.0554   34.0198 H   0  0  0  0  0  0  0  0  0  0  0  0
  109.6196   64.4852   34.0198 H   0  0  0  0  0  0  0  0  0  0  0  0
  113.6947   64.8332   32.5172 H   0  0  0  0  0  0  0  0  0  0  0  0
  111.9464   64.7320   32.1174 H   0  0  0  0  0  0  0  0  0  0  0  0
  112.7771   66.3247   32.1174 H   0  0  0  0  0  0  0  0  0  0  0  0
  112.6172   67.5916   34.1341 H   0  0  0  0  0  0  0  0  0  0  0  0
  111.6454   66.8173   35.4573 H   0  0  0  0  0  0  0  0  0  0  0  0
  109.5320   65.7545   42.4620 H   0  0  0  0  0  0  0  0  0  0  0  0
  106.7364   62.1463   41.1374 H   0  0  0  0  0  0  0  0  0  0  0  0
  1  2  2  0
  1  3  1  0
  2  4  1  0
  3  7  2  0
  4 11  2  0
  5  8  2  0
  5  9  1  0
  6  8  1  0
  6 23  2  0
  7 10  1  0
  7 11  1  0
  8 15  1  0
  9 13  2  0
  9 18  1  0
 10 12  2  0
 10 20  1  0
 11 29  1  0
 12 22  1  0
 12 29  1  0
 13 23  1  0
 13 24  1  0
 14 19  1  0
 14 25  1  0
 14 27  2  0
 15 16  2  0
 16 17  1  0
 17 26  1  0
 17 28  2  0
 18 25  1  0
 19 24  1  0
 21 26  1  0
 22 26  1  0
  1 30  1  0
  2 31  1  0
  3 32  1  0
  4 33  1  0
  5 34  1  0
  6 35  1  0
 15 36  1  0
 16 37  1  0
 18 38  1  0
 18 39  1  0
 19 40  1  0
 19 41  1  0
 20 42  1  0
 20 43  1  0
 20 44  1  0
 21 45  1  0
 21 46  1  0
 21 47  1  0
 22 48  1  0
 22 49  1  0
 24 50  1  0
 25 51  1  0
M  END
>  <s_m_entry_id>  (35) 
21979

>  <s_m_Source_Path>  (35) 
C:\Users\vinicius\Downloads\Ligands_Ecoli

>  <s_m_Source_File>  (35) 
Ligands_Ecoli_o.sdf

>  <i_m_Source_File_Index>  (35) 
91

>  <i_f3d_flags>  (35) 
0

>  <r_epik_Ionization_Penalty>  (35) 
  0.0076

>  <r_epik_State_Penalty>  (35) 
  0.0056

>  <i_epik_Tot_Q>  (35) 
0

>  <s_m_job_name>  (35) 
ligs_ecFabI_ligprep_2

>  <class_value>  (35) 
1

>  <FRED Chemgauss4 score>  (35) 
-13.573176

>  <Name>  (35) 
CHEMBL570866

>  <Set>  (35) 
training

>  <HBA count>  (35) 
5

>  <HBD count>  (35) 
2

>  <ExactMolWt>  (35) 
390.16919056400064

>  <NumRotatableBounds>  (35) 
6

>  <FractionCsp3>  (35) 
0.22727272727272727

>  <TPSA>  (35) 
87.47000000000001

>  <LogP_WildmanCrippen>  (35) 
2.8497200000000014

>  <General_Cluster>  (35) 
1

>  <Biological_Cluster>  (35) 
1

>  <Physicochemical_Cluster>  (35) 
3

>  <Structural_Cluster>  (35) 
7

$$$$
CHEMBL72900
     RDKit          3D

 54 58  0  0  0  0  0  0  0  0999 V2000
  109.6863   68.8122   43.0617 C   0  0  0  0  0  0  0  0  0  0  0  0
  109.6818   67.8339   44.0535 C   0  0  0  0  0  0  0  0  0  0  0  0
  109.9483   68.4790   41.7280 C   0  0  0  0  0  0  0  0  0  0  0  0
  109.3300   65.1553   35.3545 C   0  0  0  0  0  0  0  0  0  0  0  0
  109.2629   65.8037   34.1214 C   0  0  0  0  0  0  0  0  0  0  0  0
  108.8397   62.9238   44.1943 C   0  0  0  0  0  0  0  0  0  0  0  0
  108.2953   62.8794   41.8408 C   0  0  0  0  0  0  0  0  0  0  0  0
  109.9378   66.4947   43.7461 C   0  0  0  0  0  0  0  0  0  0  0  0
  107.5746   62.4201   44.4965 C   0  0  0  0  0  0  0  0  0  0  0  0
  107.0302   62.3756   42.1430 C   0  0  0  0  0  0  0  0  0  0  0  0
  111.5210   65.1000   33.6285 C   0  0  0  0  0  0  0  0  0  0  0  0
  110.2104   67.1355   41.3923 C   0  0  0  0  0  0  0  0  0  0  0  0
  110.4926   64.4794   35.7248 C   0  0  0  0  0  0  0  0  0  0  0  0
  110.5075   66.4514   40.1823 C   0  0  0  0  0  0  0  0  0  0  0  0
  109.2000   63.1536   42.8664 C   0  0  0  0  0  0  0  0  0  0  0  0
  110.3584   65.7761   33.2584 C   0  0  0  0  0  0  0  0  0  0  0  0
  110.1983   66.1738   42.4088 C   0  0  0  0  0  0  0  0  0  0  0  0
  111.5881   64.4517   34.8618 C   0  0  0  0  0  0  0  0  0  0  0  0
  106.6698   62.1459   43.4709 C   0  0  0  0  0  0  0  0  0  0  0  0
  110.6611   65.1150   40.4850 C   0  0  0  0  0  0  0  0  0  0  0  0
  110.4972   63.8173   37.0381 C   0  0  0  0  0  0  0  0  0  0  0  0
  110.6416   66.9480   38.7861 C   0  0  0  0  0  0  0  0  0  0  0  0
  110.9865   64.0206   39.5336 C   0  0  0  0  0  0  0  0  0  0  0  0
  111.4289   65.9299   37.9435 C   0  0  0  0  0  0  0  0  0  0  0  0
  110.2861   66.4710   31.9409 C   0  0  0  0  0  0  0  0  0  0  0  0
  110.5650   63.6965   42.5402 C   0  0  0  0  0  0  0  0  0  0  0  0
  110.4772   64.9542   41.8284 N   0  0  0  0  0  0  0  0  0  0  0  0
  110.9339   64.5514   38.1473 N   0  0  0  0  0  0  0  0  0  0  0  0
  112.6682   63.8365   35.1811 O   0  0  0  0  0  1  0  0  0  0  0  0
  110.1042   62.6517   37.0627 O   0  0  0  0  0  0  0  0  0  0  0  0
  105.4359   61.6531   43.7659 O   0  0  0  0  0  0  0  0  0  0  0  0
  109.4815   69.8591   43.3301 H   0  0  0  0  0  0  0  0  0  0  0  0
  109.4735   68.1199   45.0950 H   0  0  0  0  0  0  0  0  0  0  0  0
  109.9497   69.2570   40.9504 H   0  0  0  0  0  0  0  0  0  0  0  0
  108.4660   65.1770   36.0350 H   0  0  0  0  0  0  0  0  0  0  0  0
  108.3461   66.3368   33.8295 H   0  0  0  0  0  0  0  0  0  0  0  0
  109.5533   63.1398   45.0031 H   0  0  0  0  0  0  0  0  0  0  0  0
  108.5795   63.0605   40.7937 H   0  0  0  0  0  0  0  0  0  0  0  0
  109.9347   65.7204   44.5274 H   0  0  0  0  0  0  0  0  0  0  0  0
  107.2904   62.2391   45.5436 H   0  0  0  0  0  0  0  0  0  0  0  0
  106.3167   62.1594   41.3342 H   0  0  0  0  0  0  0  0  0  0  0  0
  112.3849   65.0781   32.9479 H   0  0  0  0  0  0  0  0  0  0  0  0
  109.6412   67.0866   38.3503 H   0  0  0  0  0  0  0  0  0  0  0  0
  111.1798   67.9073   38.7923 H   0  0  0  0  0  0  0  0  0  0  0  0
  111.9961   63.6378   39.7436 H   0  0  0  0  0  0  0  0  0  0  0  0
  110.2591   63.2031   39.6457 H   0  0  0  0  0  0  0  0  0  0  0  0
  111.3261   66.1919   36.8801 H   0  0  0  0  0  0  0  0  0  0  0  0
  112.4822   65.9659   38.2585 H   0  0  0  0  0  0  0  0  0  0  0  0
  110.1735   67.5532   32.1028 H   0  0  0  0  0  0  0  0  0  0  0  0
  111.2091   66.2791   31.3740 H   0  0  0  0  0  0  0  0  0  0  0  0
  109.4224   66.0933   31.3740 H   0  0  0  0  0  0  0  0  0  0  0  0
  111.1209   63.8532   43.4764 H   0  0  0  0  0  0  0  0  0  0  0  0
  111.0818   62.9697   41.8962 H   0  0  0  0  0  0  0  0  0  0  0  0
  104.7936   61.4584   43.0381 H   0  0  0  0  0  0  0  0  0  0  0  0
  1  2  2  0
  1  3  1  0
  2  8  1  0
  3 12  2  0
  4  5  2  0
  4 13  1  0
  5 16  1  0
  6  9  2  0
  6 15  1  0
  7 10  1  0
  7 15  2  0
  8 17  2  0
  9 19  1  0
 10 19  2  0
 11 16  2  0
 11 18  1  0
 12 14  1  0
 12 17  1  0
 13 18  2  0
 13 21  1  0
 14 20  2  0
 14 22  1  0
 15 26  1  0
 16 25  1  0
 17 27  1  0
 18 29  1  0
 19 31  1  0
 20 23  1  0
 20 27  1  0
 21 28  1  0
 21 30  2  0
 22 24  1  0
 23 28  1  0
 24 28  1  0
 26 27  1  0
  1 32  1  0
  2 33  1  0
  3 34  1  0
  4 35  1  0
  5 36  1  0
  6 37  1  0
  7 38  1  0
  8 39  1  0
  9 40  1  0
 10 41  1  0
 11 42  1  0
 22 43  1  0
 22 44  1  0
 23 45  1  0
 23 46  1  0
 24 47  1  0
 24 48  1  0
 25 49  1  0
 25 50  1  0
 25 51  1  0
 26 52  1  0
 26 53  1  0
 31 54  1  0
M  CHG  1  29  -1
M  END
>  <s_m_entry_id>  (36) 
21841

>  <s_m_Source_Path>  (36) 
C:\Users\vinicius\Downloads\Ligands_Ecoli

>  <s_m_Source_File>  (36) 
Ligands_Ecoli_o.sdf

>  <i_m_Source_File_Index>  (36) 
23

>  <i_f3d_flags>  (36) 
0

>  <r_lp_tautomer_probability>  (36) 
0.999999999997365

>  <r_epik_Ionization_Penalty>  (36) 
  1.1408

>  <r_epik_State_Penalty>  (36) 
  1.2004

>  <i_epik_Tot_Q>  (36) 
-1

>  <s_m_job_name>  (36) 
ligs_ecFabI_ligprep_2

>  <class_value>  (36) 
0

>  <FRED Chemgauss4 score>  (36) 
-15.976976

>  <Name>  (36) 
CHEMBL72900

>  <Set>  (36) 
training

>  <HBA count>  (36) 
4

>  <HBD count>  (36) 
1

>  <ExactMolWt>  (36) 
411.1714161759106

>  <NumRotatableBounds>  (36) 
5

>  <FractionCsp3>  (36) 
0.19230769230769232

>  <TPSA>  (36) 
68.53

>  <LogP_WildmanCrippen>  (36) 
3.975720000000004

>  <General_Cluster>  (36) 
1

>  <Biological_Cluster>  (36) 
2

>  <Physicochemical_Cluster>  (36) 
3

>  <Structural_Cluster>  (36) 
7

$$$$
CHEMBL433836
     RDKit          3D

 32 34  0  0  0  0  0  0  0  0999 V2000
  111.0364   69.2967   32.1954 C   0  0  0  0  0  0  0  0  0  0  0  0
  111.5137   68.0999   32.7296 C   0  0  0  0  0  0  0  0  0  0  0  0
  109.7279   69.3748   31.7183 C   0  0  0  0  0  0  0  0  0  0  0  0
  112.0490   65.7829   38.8849 C   0  0  0  0  0  0  0  0  0  0  0  0
  109.3742   67.0591   32.3095 C   0  0  0  0  0  0  0  0  0  0  0  0
  111.3576   65.6591   35.8787 C   0  0  0  0  0  0  0  0  0  0  0  0
  112.0554   65.7271   40.2613 C   0  0  0  0  0  0  0  0  0  0  0  0
  109.9083   64.9871   39.3167 C   0  0  0  0  0  0  0  0  0  0  0  0
  109.4453   64.9990   34.9800 C   0  0  0  0  0  0  0  0  0  0  0  0
  110.8053   65.3544   38.3376 C   0  0  0  0  0  0  0  0  0  0  0  0
  110.6826   66.9811   32.7867 C   0  0  0  0  0  0  0  0  0  0  0  0
  108.8969   68.2560   31.7753 C   0  0  0  0  0  0  0  0  0  0  0  0
  110.5130   65.3094   36.8942 C   0  0  0  0  0  0  0  0  0  0  0  0
  111.1933   65.7014   33.3571 C   0  0  0  0  0  0  0  0  0  0  0  0
  110.6711   65.4567   34.7057 N   0  0  0  0  0  0  0  0  0  0  0  0
  109.3372   64.9052   36.3092 N   0  0  0  0  0  4  0  0  0  0  0  0
  107.5647   68.3359   31.2908 N   0  0  0  0  0  4  0  0  0  0  0  0
  107.1546   69.4223   30.8151 O   0  0  0  0  0  1  0  0  0  0  0  0
  106.8333   67.3180   31.3517 O   0  0  0  0  0  0  0  0  0  0  0  0
  110.5663   65.1597   40.8882 S   0  0  0  0  0  0  0  0  0  0  0  0
  111.6918   70.1790   32.1503 H   0  0  0  0  0  0  0  0  0  0  0  0
  112.5455   68.0383   33.1059 H   0  0  0  0  0  0  0  0  0  0  0  0
  109.3514   70.3187   31.2971 H   0  0  0  0  0  0  0  0  0  0  0  0
  112.9037   66.1188   38.2795 H   0  0  0  0  0  0  0  0  0  0  0  0
  108.7188   66.1768   32.3544 H   0  0  0  0  0  0  0  0  0  0  0  0
  112.3879   66.0308   35.9805 H   0  0  0  0  0  0  0  0  0  0  0  0
  112.9157   66.0133   40.8842 H   0  0  0  0  0  0  0  0  0  0  0  0
  108.8896   64.6256   39.1130 H   0  0  0  0  0  0  0  0  0  0  0  0
  108.6669   64.7456   34.2453 H   0  0  0  0  0  0  0  0  0  0  0  0
  110.8874   64.8727   32.7015 H   0  0  0  0  0  0  0  0  0  0  0  0
  112.2891   65.7710   33.4233 H   0  0  0  0  0  0  0  0  0  0  0  0
  108.5017   64.5802   36.8164 H   0  0  0  0  0  0  0  0  0  0  0  0
  1  2  2  0
  1  3  1  0
  2 11  1  0
  3 12  2  0
  4  7  2  0
  4 10  1  0
  5 11  2  0
  5 12  1  0
  6 13  2  0
  6 15  1  0
  7 20  1  0
  8 10  2  0
  8 20  1  0
  9 15  1  0
  9 16  2  0
 10 13  1  0
 11 14  1  0
 12 17  1  0
 13 16  1  0
 14 15  1  0
 17 18  1  0
 17 19  2  0
  1 21  1  0
  2 22  1  0
  3 23  1  0
  4 24  1  0
  5 25  1  0
  6 26  1  0
  7 27  1  0
  8 28  1  0
  9 29  1  0
 14 30  1  0
 14 31  1  0
 16 32  1  0
M  CHG  3  16   1  17   1  18  -1
M  END
>  <s_m_entry_id>  (37) 
21866

>  <s_m_Source_Path>  (37) 
C:\Users\vinicius\Downloads\Ligands_Ecoli

>  <s_m_Source_File>  (37) 
Ligands_Ecoli_o.sdf

>  <i_m_Source_File_Index>  (37) 
37

>  <i_f3d_flags>  (37) 
0

>  <r_lp_tautomer_probability>  (37) 
1

>  <r_epik_Ionization_Penalty>  (37) 
  0.8997

>  <r_epik_State_Penalty>  (37) 
  0.9395

>  <i_epik_Tot_Q>  (37) 
1

>  <s_m_job_name>  (37) 
ligs_ecFabI_ligprep_2

>  <class_value>  (37) 
0

>  <FRED Chemgauss4 score>  (37) 
-15.885699

>  <Name>  (37) 
CHEMBL433836

>  <Set>  (37) 
training

>  <HBA count>  (37) 
4

>  <HBD count>  (37) 
0

>  <ExactMolWt>  (37) 
286.06447404409033

>  <NumRotatableBounds>  (37) 
4

>  <FractionCsp3>  (37) 
0.07142857142857142

>  <TPSA>  (37) 
62.21

>  <LogP_WildmanCrippen>  (37) 
2.9872000000000014

>  <General_Cluster>  (37) 
2

>  <Biological_Cluster>  (37) 
2

>  <Physicochemical_Cluster>  (37) 
6

>  <Structural_Cluster>  (37) 
1

$$$$
CHEMBL2178311
     RDKit          3D

 48 50  0  0  0  0  0  0  0  0999 V2000
  109.0190   66.5385   33.9409 C   0  0  0  0  0  0  0  0  0  0  0  0
  109.3674   65.6172   34.9285 C   0  0  0  0  0  0  0  0  0  0  0  0
  111.8160   65.5827   37.2505 C   0  0  0  0  0  0  0  0  0  0  0  0
  110.4998   63.7609   38.1370 C   0  0  0  0  0  0  0  0  0  0  0  0
  112.0123   66.0698   38.5427 C   0  0  0  0  0  0  0  0  0  0  0  0
  110.6961   64.2480   39.4293 C   0  0  0  0  0  0  0  0  0  0  0  0
  111.0037   65.9525   32.6941 C   0  0  0  0  0  0  0  0  0  0  0  0
  109.8371   66.7061   32.8236 C   0  0  0  0  0  0  0  0  0  0  0  0
  111.0597   64.4283   37.0476 C   0  0  0  0  0  0  0  0  0  0  0  0
  110.5340   64.8637   34.7990 C   0  0  0  0  0  0  0  0  0  0  0  0
  111.3522   65.0313   33.6818 C   0  0  0  0  0  0  0  0  0  0  0  0
  111.4524   65.4025   39.6321 C   0  0  0  0  0  0  0  0  0  0  0  0
  106.8160   67.4064   43.6158 C   0  0  0  0  0  0  0  0  0  0  0  0
  105.8085   67.1076   42.5397 C   0  0  0  0  0  0  0  0  0  0  0  0
  107.8445   67.3478   41.5978 C   0  0  0  0  0  0  0  0  0  0  0  0
  110.0419   69.0765   32.0326 C   0  0  0  0  0  0  0  0  0  0  0  0
  109.4634   67.6892   31.7663 C   0  0  0  0  0  0  0  0  0  0  0  0
  109.0116   66.3997   41.4005 C   0  0  0  0  0  0  0  0  0  0  0  0
  110.3447   67.1215   41.5219 C   0  0  0  0  0  0  0  0  0  0  0  0
  111.5600   64.8917   42.1741 O   0  0  0  0  0  0  0  0  0  0  0  0
  112.9202   66.8097   41.2701 O   0  0  0  0  0  0  0  0  0  0  0  0
  107.9205   67.9532   42.8956 O   0  0  0  0  0  0  0  0  0  0  0  0
  106.6148   66.6225   41.4678 O   0  0  0  0  0  0  0  0  0  0  0  0
  112.4944   64.3017   33.5447 O   0  0  0  0  0  0  0  0  0  0  0  0
  110.8685   63.9526   35.7867 O   0  0  0  0  0  0  0  0  0  0  0  0
  111.7003   66.0204   41.2702 S   0  0  0  0  0  6  0  0  0  0  0  0
  108.0991   67.1329   34.0431 H   0  0  0  0  0  0  0  0  0  0  0  0
  108.7221   65.4849   35.8095 H   0  0  0  0  0  0  0  0  0  0  0  0
  112.2576   66.1089   36.3914 H   0  0  0  0  0  0  0  0  0  0  0  0
  109.9035   62.8505   37.9770 H   0  0  0  0  0  0  0  0  0  0  0  0
  112.6087   66.9802   38.7026 H   0  0  0  0  0  0  0  0  0  0  0  0
  110.2545   63.7218   40.2884 H   0  0  0  0  0  0  0  0  0  0  0  0
  111.6489   66.0847   31.8130 H   0  0  0  0  0  0  0  0  0  0  0  0
  106.4170   68.1353   44.3366 H   0  0  0  0  0  0  0  0  0  0  0  0
  107.0870   66.5194   44.2072 H   0  0  0  0  0  0  0  0  0  0  0  0
  105.0911   66.3427   42.8717 H   0  0  0  0  0  0  0  0  0  0  0  0
  105.2001   67.9810   42.2623 H   0  0  0  0  0  0  0  0  0  0  0  0
  107.8838   68.1388   40.8344 H   0  0  0  0  0  0  0  0  0  0  0  0
  110.1112   69.2427   33.1178 H   0  0  0  0  0  0  0  0  0  0  0  0
  111.0446   69.1476   31.5860 H   0  0  0  0  0  0  0  0  0  0  0  0
  109.3867   69.8389   31.5860 H   0  0  0  0  0  0  0  0  0  0  0  0
  109.8417   67.3283   30.7985 H   0  0  0  0  0  0  0  0  0  0  0  0
  108.3670   67.7776   31.7623 H   0  0  0  0  0  0  0  0  0  0  0  0
  108.9626   65.6092   42.1639 H   0  0  0  0  0  0  0  0  0  0  0  0
  108.9417   65.9731   40.3890 H   0  0  0  0  0  0  0  0  0  0  0  0
  110.3885   67.9209   40.7676 H   0  0  0  0  0  0  0  0  0  0  0  0
  110.4213   67.5373   42.5374 H   0  0  0  0  0  0  0  0  0  0  0  0
  112.7493   63.6457   34.2410 H   0  0  0  0  0  0  0  0  0  0  0  0
  1  2  2  0
  1  8  1  0
  2 10  1  0
  3  5  2  0
  3  9  1  0
  4  6  1  0
  4  9  2  0
  5 12  1  0
  6 12  2  0
  7  8  2  0
  7 11  1  0
  8 17  1  0
  9 25  1  0
 10 11  2  0
 10 25  1  0
 11 24  1  0
 12 26  1  0
 13 14  1  0
 13 22  1  0
 14 23  1  0
 15 18  1  0
 15 22  1  0
 15 23  1  0
 16 17  1  0
 18 19  1  0
 19 26  1  0
 20 26  2  0
 21 26  2  0
  1 27  1  0
  2 28  1  0
  3 29  1  0
  4 30  1  0
  5 31  1  0
  6 32  1  0
  7 33  1  0
 13 34  1  0
 13 35  1  0
 14 36  1  0
 14 37  1  0
 15 38  1  0
 16 39  1  0
 16 40  1  0
 16 41  1  0
 17 42  1  0
 17 43  1  0
 18 44  1  0
 18 45  1  0
 19 46  1  0
 19 47  1  0
 24 48  1  0
M  END
>  <s_m_entry_id>  (38) 
22041

>  <s_m_Source_Path>  (38) 
C:\Users\vinicius\Downloads\Ligands_Ecoli

>  <s_m_Source_File>  (38) 
Ligands_Ecoli_o.sdf

>  <i_m_Source_File_Index>  (38) 
125

>  <i_f3d_flags>  (38) 
0

>  <r_lp_tautomer_probability>  (38) 
1

>  <r_epik_Ionization_Penalty>  (38) 
  0.0039

>  <r_epik_State_Penalty>  (38) 
  0.0028

>  <i_epik_Tot_Q>  (38) 
0

>  <s_m_job_name>  (38) 
ligs_ecFabI_ligprep_2

>  <class_value>  (38) 
1

>  <FRED Chemgauss4 score>  (38) 
-16.502926

>  <Name>  (38) 
CHEMBL2178311

>  <Set>  (38) 
training

>  <HBA count>  (38) 
6

>  <HBD count>  (38) 
1

>  <ExactMolWt>  (38) 
378.1137094240005

>  <NumRotatableBounds>  (38) 
9

>  <FractionCsp3>  (38) 
0.3684210526315789

>  <TPSA>  (38) 
82.06000000000002

>  <LogP_WildmanCrippen>  (38) 
3.283600000000002

>  <General_Cluster>  (38) 
4

>  <Biological_Cluster>  (38) 
1

>  <Physicochemical_Cluster>  (38) 
3

>  <Structural_Cluster>  (38) 
6

$$$$
CHEMBL460033
     RDKit          3D

 38 38  0  0  1  0  0  0  0  0999 V2000
  110.7038   68.1145   32.7734 C   0  0  0  0  0  0  0  0  0  0  0  0
  109.9144   68.9756   32.0112 C   0  0  0  0  0  0  0  0  0  0  0  0
  108.9843   66.4224   32.6424 C   0  0  0  0  0  0  0  0  0  0  0  0
  110.2387   66.8378   33.0890 C   0  0  0  0  0  0  0  0  0  0  0  0
  108.6600   68.5601   31.5646 C   0  0  0  0  0  0  0  0  0  0  0  0
  108.1949   67.2835   31.8802 C   0  0  0  0  0  0  0  0  0  0  0  0
  110.7315   64.6488   37.6290 C   0  0  0  0  0  0  0  0  0  0  0  0
  110.9353   65.1886   38.8458 C   0  0  0  0  0  0  0  0  0  0  0  0
  107.8283   69.4957   30.7511 C   0  0  0  0  0  0  0  0  0  0  0  0
  110.2130   64.8048   40.1059 C   0  0  0  0  0  0  0  0  0  0  0  0
  111.9591   66.2780   39.0302 C   0  0  0  0  0  0  0  0  0  0  0  0
  111.4807   64.6655   33.0921 C   0  0  0  0  0  0  0  0  0  0  0  0
  111.4161   64.9849   36.3338 C   0  0  0  0  0  0  0  0  0  0  0  0
  110.4398   65.4557   35.2441 C   0  0  0  0  0  0  0  0  0  0  0  0
  111.0988   65.9005   33.9182 C   0  0  2  0  0  0  0  0  0  0  0  0
  106.9726   66.8614   31.4511 O   0  0  0  0  0  0  0  0  0  0  0  0
  111.6930   68.4422   33.1256 H   0  0  0  0  0  0  0  0  0  0  0  0
  110.2811   69.9824   31.7623 H   0  0  0  0  0  0  0  0  0  0  0  0
  108.6175   65.4157   32.8913 H   0  0  0  0  0  0  0  0  0  0  0  0
  109.9658   63.8608   37.5762 H   0  0  0  0  0  0  0  0  0  0  0  0
  107.2486   70.1478   31.4209 H   0  0  0  0  0  0  0  0  0  0  0  0
  108.4830   70.1110   30.1165 H   0  0  0  0  0  0  0  0  0  0  0  0
  107.1405   68.9176   30.1165 H   0  0  0  0  0  0  0  0  0  0  0  0
  110.8049   65.1193   40.9781 H   0  0  0  0  0  0  0  0  0  0  0  0
  109.2312   65.3002   40.1311 H   0  0  0  0  0  0  0  0  0  0  0  0
  110.0740   63.7139   40.1311 H   0  0  0  0  0  0  0  0  0  0  0  0
  112.1214   66.4507   40.1044 H   0  0  0  0  0  0  0  0  0  0  0  0
  112.9063   65.9744   38.5604 H   0  0  0  0  0  0  0  0  0  0  0  0
  111.5973   67.2045   38.5604 H   0  0  0  0  0  0  0  0  0  0  0  0
  111.7370   63.8368   33.7685 H   0  0  0  0  0  0  0  0  0  0  0  0
  110.6314   64.3718   32.4577 H   0  0  0  0  0  0  0  0  0  0  0  0
  112.3475   64.9024   32.4577 H   0  0  0  0  0  0  0  0  0  0  0  0
  112.1461   65.7863   36.5206 H   0  0  0  0  0  0  0  0  0  0  0  0
  111.8995   64.0667   35.9687 H   0  0  0  0  0  0  0  0  0  0  0  0
  109.7527   64.6261   35.0212 H   0  0  0  0  0  0  0  0  0  0  0  0
  109.9365   66.3461   35.6489 H   0  0  0  0  0  0  0  0  0  0  0  0
  111.9964   66.4744   34.1921 H   0  0  0  0  0  0  0  0  0  0  0  0
  106.4031   67.4634   30.9095 H   0  0  0  0  0  0  0  0  0  0  0  0
  1  2  2  0
  1  4  1  0
  2  5  1  0
  3  4  2  0
  3  6  1  0
  4 15  1  0
  5  6  2  0
  5  9  1  0
  6 16  1  0
  7  8  2  3
  7 13  1  0
  8 10  1  0
  8 11  1  0
 12 15  1  0
 13 14  1  0
 14 15  1  0
  1 17  1  0
  2 18  1  0
  3 19  1  0
  7 20  1  0
  9 21  1  0
  9 22  1  0
  9 23  1  0
 10 24  1  0
 10 25  1  0
 10 26  1  0
 11 27  1  0
 11 28  1  0
 11 29  1  0
 12 30  1  0
 12 31  1  0
 12 32  1  0
 13 33  1  0
 13 34  1  0
 14 35  1  0
 14 36  1  0
 15 37  1  1
 16 38  1  0
M  END
>  <s_m_entry_id>  (39) 
22063

>  <s_m_Source_Path>  (39) 
C:\Users\vinicius\Downloads\Ligands_Ecoli

>  <s_m_Source_File>  (39) 
Ligands_Ecoli_o.sdf

>  <i_m_Source_File_Index>  (39) 
138

>  <i_f3d_flags>  (39) 
0

>  <r_lp_tautomer_probability>  (39) 
0.999999999997365

>  <r_epik_Ionization_Penalty>  (39) 
  0.0005

>  <r_epik_State_Penalty>  (39) 
  0.0003

>  <i_epik_Tot_Q>  (39) 
0

>  <s_m_job_name>  (39) 
ligs_ecFabI_ligprep_2

>  <class_value>  (39) 
0

>  <FRED Chemgauss4 score>  (39) 
-14.479169

>  <Name>  (39) 
CHEMBL460033

>  <Set>  (39) 
training

>  <HBA count>  (39) 
1

>  <HBD count>  (39) 
1

>  <ExactMolWt>  (39) 
218.167065324

>  <NumRotatableBounds>  (39) 
9

>  <FractionCsp3>  (39) 
0.4666666666666667

>  <TPSA>  (39) 
20.23

>  <LogP_WildmanCrippen>  (39) 
4.550520000000004

>  <General_Cluster>  (39) 
1

>  <Biological_Cluster>  (39) 
2

>  <Physicochemical_Cluster>  (39) 
5

>  <Structural_Cluster>  (39) 
3

$$$$
CHEMBL2178294
     RDKit          3D

 44 45  0  0  0  0  0  0  0  0999 V2000
  111.0468   66.3777   32.6939 C   0  0  0  0  0  0  0  0  0  0  0  0
  111.6643   65.5394   33.6220 C   0  0  0  0  0  0  0  0  0  0  0  0
  112.0636   65.7135   37.2760 C   0  0  0  0  0  0  0  0  0  0  0  0
  112.0283   66.0885   38.6190 C   0  0  0  0  0  0  0  0  0  0  0  0
  108.9327   66.0693   33.8219 C   0  0  0  0  0  0  0  0  0  0  0  0
  110.8789   64.0340   39.1625 C   0  0  0  0  0  0  0  0  0  0  0  0
  109.6810   66.6427   32.7938 C   0  0  0  0  0  0  0  0  0  0  0  0
  110.9160   64.9660   34.6501 C   0  0  0  0  0  0  0  0  0  0  0  0
  111.5064   64.4987   36.8762 C   0  0  0  0  0  0  0  0  0  0  0  0
  109.5502   65.2310   34.7500 C   0  0  0  0  0  0  0  0  0  0  0  0
  110.9142   63.6590   37.8194 C   0  0  0  0  0  0  0  0  0  0  0  0
  111.4360   65.2488   39.5622 C   0  0  0  0  0  0  0  0  0  0  0  0
  109.0427   69.0034   32.2404 C   0  0  0  0  0  0  0  0  0  0  0  0
  107.6348   66.4449   43.2728 C   0  0  0  0  0  0  0  0  0  0  0  0
  109.0211   67.5411   31.8030 C   0  0  0  0  0  0  0  0  0  0  0  0
  107.4753   66.5339   41.7617 C   0  0  0  0  0  0  0  0  0  0  0  0
  108.6566   65.9344   41.0084 C   0  0  0  0  0  0  0  0  0  0  0  0
  109.8984   66.5785   41.3360 N   0  0  0  0  0  0  0  0  0  0  0  0
  111.2744   64.5191   42.0625 O   0  0  0  0  0  0  0  0  0  0  0  0
  112.4987   66.6364   41.4776 O   0  0  0  0  0  0  0  0  0  0  0  0
  108.8088   64.6762   35.7492 O   0  0  0  0  0  0  0  0  0  0  0  0
  111.5412   64.1354   35.5650 O   0  0  0  0  0  0  0  0  0  0  0  0
  110.3768   62.4909   37.4419 F   0  0  0  0  0  0  0  0  0  0  0  0
  111.3913   65.7244   41.2642 S   0  0  0  0  0  6  0  0  0  0  0  0
  111.6369   66.8299   31.8831 H   0  0  0  0  0  0  0  0  0  0  0  0
  112.7414   65.3305   33.5432 H   0  0  0  0  0  0  0  0  0  0  0  0
  112.5308   66.3756   36.5321 H   0  0  0  0  0  0  0  0  0  0  0  0
  112.4676   67.0464   38.9343 H   0  0  0  0  0  0  0  0  0  0  0  0
  107.8556   66.2782   33.9007 H   0  0  0  0  0  0  0  0  0  0  0  0
  110.4118   63.3718   39.9064 H   0  0  0  0  0  0  0  0  0  0  0  0
  109.0435   69.0575   33.3391 H   0  0  0  0  0  0  0  0  0  0  0  0
  109.9481   69.4900   31.8487 H   0  0  0  0  0  0  0  0  0  0  0  0
  108.1520   69.5165   31.8487 H   0  0  0  0  0  0  0  0  0  0  0  0
  106.7741   66.9252   43.7613 H   0  0  0  0  0  0  0  0  0  0  0  0
  107.6851   65.3883   43.5746 H   0  0  0  0  0  0  0  0  0  0  0  0
  108.5604   66.9569   43.5746 H   0  0  0  0  0  0  0  0  0  0  0  0
  109.5463   67.4522   30.8406 H   0  0  0  0  0  0  0  0  0  0  0  0
  107.9690   67.2316   31.7175 H   0  0  0  0  0  0  0  0  0  0  0  0
  106.5623   65.9931   41.4719 H   0  0  0  0  0  0  0  0  0  0  0  0
  107.4188   67.5999   41.4962 H   0  0  0  0  0  0  0  0  0  0  0  0
  108.7339   64.8673   41.2640 H   0  0  0  0  0  0  0  0  0  0  0  0
  108.4771   66.0791   39.9328 H   0  0  0  0  0  0  0  0  0  0  0  0
  109.9894   67.3801   40.6957 H   0  0  0  0  0  0  0  0  0  0  0  0
  109.2390   64.0800   36.4122 H   0  0  0  0  0  0  0  0  0  0  0  0
  1  2  2  0
  1  7  1  0
  2  8  1  0
  3  4  2  0
  3  9  1  0
  4 12  1  0
  5  7  2  0
  5 10  1  0
  6 11  1  0
  6 12  2  0
  7 15  1  0
  8 10  2  0
  8 22  1  0
  9 11  2  0
  9 22  1  0
 10 21  1  0
 11 23  1  0
 12 24  1  0
 13 15  1  0
 14 16  1  0
 16 17  1  0
 17 18  1  0
 18 24  1  0
 19 24  2  0
 20 24  2  0
  1 25  1  0
  2 26  1  0
  3 27  1  0
  4 28  1  0
  5 29  1  0
  6 30  1  0
 13 31  1  0
 13 32  1  0
 13 33  1  0
 14 34  1  0
 14 35  1  0
 14 36  1  0
 15 37  1  0
 15 38  1  0
 16 39  1  0
 16 40  1  0
 17 41  1  0
 17 42  1  0
 18 43  1  0
 21 44  1  0
M  END
>  <s_m_entry_id>  (40) 
22029

>  <s_m_Source_Path>  (40) 
C:\Users\vinicius\Downloads\Ligands_Ecoli

>  <s_m_Source_File>  (40) 
Ligands_Ecoli_o.sdf

>  <i_m_Source_File_Index>  (40) 
117

>  <i_f3d_flags>  (40) 
0

>  <r_lp_tautomer_probability>  (40) 
1

>  <r_epik_Ionization_Penalty>  (40) 
  0.0690

>  <r_epik_State_Penalty>  (40) 
  0.0602

>  <i_epik_Tot_Q>  (40) 
0

>  <s_m_job_name>  (40) 
ligs_ecFabI_ligprep_2

>  <class_value>  (40) 
1

>  <FRED Chemgauss4 score>  (40) 
-16.027206

>  <Name>  (40) 
CHEMBL2178294

>  <Set>  (40) 
training

>  <HBA count>  (40) 
4

>  <HBD count>  (40) 
2

>  <ExactMolWt>  (40) 
353.10970734000057

>  <NumRotatableBounds>  (40) 
10

>  <FractionCsp3>  (40) 
0.29411764705882354

>  <TPSA>  (40) 
75.63000000000001

>  <LogP_WildmanCrippen>  (40) 
3.5743000000000023

>  <General_Cluster>  (40) 
4

>  <Biological_Cluster>  (40) 
1

>  <Physicochemical_Cluster>  (40) 
3

>  <Structural_Cluster>  (40) 
6

$$$$
CHEMBL566666
     RDKit          3D

 65 69  0  0  0  0  0  0  0  0999 V2000
  103.9419   62.2233   45.5852 C   0  0  0  0  0  0  0  0  0  0  0  0
  104.5231   63.4927   45.5763 C   0  0  0  0  0  0  0  0  0  0  0  0
  105.7745   61.3433   44.2802 C   0  0  0  0  0  0  0  0  0  0  0  0
  110.1985   65.4613   36.8130 C   0  0  0  0  0  0  0  0  0  0  0  0
  112.4682   64.7622   36.8127 C   0  0  0  0  0  0  0  0  0  0  0  0
  106.3896   62.6184   44.2528 C   0  0  0  0  0  0  0  0  0  0  0  0
  111.3187   65.0523   37.5260 C   0  0  0  0  0  0  0  0  0  0  0  0
  110.2658   65.5854   35.4248 C   0  0  0  0  0  0  0  0  0  0  0  0
  107.6165   63.0502   43.6460 C   0  0  0  0  0  0  0  0  0  0  0  0
  104.5593   61.1584   44.9447 C   0  0  0  0  0  0  0  0  0  0  0  0
  105.7483   63.6757   44.9055 C   0  0  0  0  0  0  0  0  0  0  0  0
  107.8712   64.3861   43.8459 C   0  0  0  0  0  0  0  0  0  0  0  0
  111.4693   65.2762   34.7979 C   0  0  0  0  0  0  0  0  0  0  0  0
  110.5586   65.8930   32.5842 C   0  0  0  0  0  0  0  0  0  0  0  0
  111.2809   64.9208   38.9709 C   0  0  0  0  0  0  0  0  0  0  0  0
  110.1583   64.7900   39.7166 C   0  0  0  0  0  0  0  0  0  0  0  0
  110.2491   64.6958   41.2036 C   0  0  0  0  0  0  0  0  0  0  0  0
  109.0615   65.9404   34.6046 C   0  0  0  0  0  0  0  0  0  0  0  0
  109.9507   68.1073   33.6291 C   0  0  0  0  0  0  0  0  0  0  0  0
  108.1668   66.7683   32.4181 C   0  0  0  0  0  0  0  0  0  0  0  0
  110.0530   69.0159   32.4108 C   0  0  0  0  0  0  0  0  0  0  0  0
  108.2550   67.7391   31.2451 C   0  0  0  0  0  0  0  0  0  0  0  0
  109.4374   66.6829   33.2985 C   0  0  0  0  0  0  0  0  0  0  0  0
  108.5191   62.1496   42.8832 C   0  0  0  0  0  0  0  0  0  0  0  0
  108.0184   65.7447   41.1957 C   0  0  0  0  0  0  0  0  0  0  0  0
  108.7054   70.1067   30.6233 C   0  0  0  0  0  0  0  0  0  0  0  0
  109.0407   65.2022   43.3765 C   0  0  0  0  0  0  0  0  0  0  0  0
  112.5683   64.8562   35.4679 N   0  0  0  0  0  0  0  0  0  0  0  0
  111.5454   65.3658   33.3972 N   0  0  0  0  0  0  0  0  0  0  0  0
  109.1597   65.2000   41.9196 N   0  0  0  0  0  0  0  0  0  0  0  0
  108.7132   69.0872   31.7293 N   0  0  0  0  0  4  0  0  0  0  0  0
  110.6272   65.8010   31.3578 O   0  0  0  0  0  0  0  0  0  0  0  0
  111.2564   64.2163   41.7259 O   0  0  0  0  0  0  0  0  0  0  0  0
  103.9885   59.9465   44.9623 F   0  0  0  0  0  0  0  0  0  0  0  0
  106.6471   65.1403   44.7614 S   0  0  0  0  0  0  0  0  0  0  0  0
  102.9853   62.0658   46.1050 H   0  0  0  0  0  0  0  0  0  0  0  0
  104.0325   64.3359   46.0846 H   0  0  0  0  0  0  0  0  0  0  0  0
  106.2563   60.4930   43.7753 H   0  0  0  0  0  0  0  0  0  0  0  0
  109.2606   65.6868   37.3417 H   0  0  0  0  0  0  0  0  0  0  0  0
  113.3554   64.4349   37.3746 H   0  0  0  0  0  0  0  0  0  0  0  0
  112.2431   64.9280   39.5039 H   0  0  0  0  0  0  0  0  0  0  0  0
  109.1752   64.7530   39.2245 H   0  0  0  0  0  0  0  0  0  0  0  0
  108.5259   65.0156   34.3441 H   0  0  0  0  0  0  0  0  0  0  0  0
  108.4322   66.6138   35.2051 H   0  0  0  0  0  0  0  0  0  0  0  0
  110.9488   68.0207   34.0833 H   0  0  0  0  0  0  0  0  0  0  0  0
  109.2190   68.5638   34.3118 H   0  0  0  0  0  0  0  0  0  0  0  0
  107.3294   67.0829   33.0583 H   0  0  0  0  0  0  0  0  0  0  0  0
  108.0317   65.7690   31.9785 H   0  0  0  0  0  0  0  0  0  0  0  0
  110.3576   70.0239   32.7288 H   0  0  0  0  0  0  0  0  0  0  0  0
  110.8007   68.6124   31.7121 H   0  0  0  0  0  0  0  0  0  0  0  0
  108.9728   67.3538   30.5060 H   0  0  0  0  0  0  0  0  0  0  0  0
  107.2621   67.8389   30.7824 H   0  0  0  0  0  0  0  0  0  0  0  0
  109.1187   61.5513   43.5849 H   0  0  0  0  0  0  0  0  0  0  0  0
  107.9190   61.4796   42.2500 H   0  0  0  0  0  0  0  0  0  0  0  0
  109.1878   62.7512   42.2500 H   0  0  0  0  0  0  0  0  0  0  0  0
  107.2662   66.1037   41.9136 H   0  0  0  0  0  0  0  0  0  0  0  0
  108.3505   66.5814   40.5635 H   0  0  0  0  0  0  0  0  0  0  0  0
  107.5768   64.9602   40.5635 H   0  0  0  0  0  0  0  0  0  0  0  0
  108.6977   71.1177   31.0566 H   0  0  0  0  0  0  0  0  0  0  0  0
  109.6045   69.9808   30.0022 H   0  0  0  0  0  0  0  0  0  0  0  0
  107.8083   69.9671   30.0022 H   0  0  0  0  0  0  0  0  0  0  0  0
  108.9115   66.2389   43.7208 H   0  0  0  0  0  0  0  0  0  0  0  0
  109.9558   64.7560   43.7931 H   0  0  0  0  0  0  0  0  0  0  0  0
  112.3995   65.0126   32.9426 H   0  0  0  0  0  0  0  0  0  0  0  0
  108.0332   69.3988   32.4373 H   0  0  0  0  0  0  0  0  0  0  0  0
  1  2  2  0
  1 10  1  0
  2 11  1  0
  3  6  1  0
  3 10  2  0
  4  7  2  0
  4  8  1  0
  5  7  1  0
  5 28  2  0
  6  9  1  0
  6 11  2  0
  7 15  1  0
  8 13  2  0
  8 18  1  0
  9 12  2  0
  9 24  1  0
 10 34  1  0
 11 35  1  0
 12 27  1  0
 12 35  1  0
 13 28  1  0
 13 29  1  0
 14 23  1  0
 14 29  1  0
 14 32  2  0
 15 16  2  0
 16 17  1  0
 17 30  1  0
 17 33  2  0
 18 23  1  0
 19 21  1  0
 19 23  1  0
 20 22  1  0
 20 23  1  0
 21 31  1  0
 22 31  1  0
 25 30  1  0
 26 31  1  0
 27 30  1  0
  1 36  1  0
  2 37  1  0
  3 38  1  0
  4 39  1  0
  5 40  1  0
 15 41  1  0
 16 42  1  0
 18 43  1  0
 18 44  1  0
 19 45  1  0
 19 46  1  0
 20 47  1  0
 20 48  1  0
 21 49  1  0
 21 50  1  0
 22 51  1  0
 22 52  1  0
 24 53  1  0
 24 54  1  0
 24 55  1  0
 25 56  1  0
 25 57  1  0
 25 58  1  0
 26 59  1  0
 26 60  1  0
 26 61  1  0
 27 62  1  0
 27 63  1  0
 29 64  1  0
 31 65  1  0
M  CHG  1  31   1
M  END
>  <s_m_entry_id>  (41) 
21994

>  <s_m_Source_Path>  (41) 
C:\Users\vinicius\Downloads\Ligands_Ecoli

>  <s_m_Source_File>  (41) 
Ligands_Ecoli_o.sdf

>  <i_m_Source_File_Index>  (41) 
98

>  <i_f3d_flags>  (41) 
0

>  <r_epik_Ionization_Penalty>  (41) 
  0.0153

>  <r_epik_State_Penalty>  (41) 
  0.0120

>  <i_epik_Tot_Q>  (41) 
1

>  <s_m_job_name>  (41) 
ligs_ecFabI_ligprep_2

>  <class_value>  (41) 
1

>  <FRED Chemgauss4 score>  (41) 
-13.711579

>  <Name>  (41) 
CHEMBL566666

>  <Set>  (41) 
training

>  <HBA count>  (41) 
4

>  <HBD count>  (41) 
2

>  <ExactMolWt>  (41) 
493.20680184009086

>  <NumRotatableBounds>  (41) 
7

>  <FractionCsp3>  (41) 
0.37037037037037035

>  <TPSA>  (41) 
66.74000000000001

>  <LogP_WildmanCrippen>  (41) 
3.205120000000001

>  <General_Cluster>  (41) 
4

>  <Biological_Cluster>  (41) 
1

>  <Physicochemical_Cluster>  (41) 
4

>  <Structural_Cluster>  (41) 
5

$$$$
CHEMBL65914
     RDKit          3D

 39 41  0  0  0  0  0  0  0  0999 V2000
  109.8602   66.1533   35.4475 C   0  0  0  0  0  0  0  0  0  0  0  0
  111.6607   64.7345   34.6848 C   0  0  0  0  0  0  0  0  0  0  0  0
  108.0242   66.2824   42.2478 C   0  0  0  0  0  0  0  0  0  0  0  0
  107.9479   63.9275   41.7134 C   0  0  0  0  0  0  0  0  0  0  0  0
  109.3156   66.3589   41.7264 C   0  0  0  0  0  0  0  0  0  0  0  0
  109.2393   64.0040   41.1919 C   0  0  0  0  0  0  0  0  0  0  0  0
  109.5950   66.5253   34.1296 C   0  0  0  0  0  0  0  0  0  0  0  0
  111.3955   65.1064   33.3669 C   0  0  0  0  0  0  0  0  0  0  0  0
  110.9494   65.6705   38.1820 C   0  0  0  0  0  0  0  0  0  0  0  0
  111.7799   63.7114   38.7552 C   0  0  0  0  0  0  0  0  0  0  0  0
  110.8931   65.2579   35.7252 C   0  0  0  0  0  0  0  0  0  0  0  0
  107.3403   65.0667   42.2413 C   0  0  0  0  0  0  0  0  0  0  0  0
  109.9232   65.2197   41.1984 C   0  0  0  0  0  0  0  0  0  0  0  0
  110.3626   66.0018   33.0893 C   0  0  0  0  0  0  0  0  0  0  0  0
  111.1670   64.8751   37.0817 C   0  0  0  0  0  0  0  0  0  0  0  0
  105.9594   64.9840   42.7982 C   0  0  0  0  0  0  0  0  0  0  0  0
  109.0336   67.2834   31.5903 C   0  0  0  0  0  0  0  0  0  0  0  0
  111.3159   65.3034   40.6345 C   0  0  0  0  0  0  0  0  0  0  0  0
  111.6837   63.6568   37.4453 N   0  0  0  0  0  0  0  0  0  0  0  0
  111.3464   64.9113   39.2465 N   0  0  0  0  0  0  0  0  0  0  0  0
  110.1039   66.3643   31.8031 O   0  0  0  0  0  0  0  0  0  0  0  0
  109.2548   66.5661   36.2679 H   0  0  0  0  0  0  0  0  0  0  0  0
  112.4753   64.0284   34.9037 H   0  0  0  0  0  0  0  0  0  0  0  0
  107.5451   67.1808   42.6641 H   0  0  0  0  0  0  0  0  0  0  0  0
  107.4086   62.9688   41.7084 H   0  0  0  0  0  0  0  0  0  0  0  0
  109.8549   67.3176   41.7316 H   0  0  0  0  0  0  0  0  0  0  0  0
  109.7184   63.1056   40.7755 H   0  0  0  0  0  0  0  0  0  0  0  0
  108.7805   67.2315   33.9107 H   0  0  0  0  0  0  0  0  0  0  0  0
  112.0009   64.6936   32.5465 H   0  0  0  0  0  0  0  0  0  0  0  0
  110.5447   66.6932   38.2011 H   0  0  0  0  0  0  0  0  0  0  0  0
  112.1628   62.8911   39.3802 H   0  0  0  0  0  0  0  0  0  0  0  0
  106.0065   64.9868   43.8972 H   0  0  0  0  0  0  0  0  0  0  0  0
  105.3729   65.8486   42.4541 H   0  0  0  0  0  0  0  0  0  0  0  0
  105.4803   64.0556   42.4541 H   0  0  0  0  0  0  0  0  0  0  0  0
  108.6412   67.6204   32.5611 H   0  0  0  0  0  0  0  0  0  0  0  0
  109.4023   68.1506   31.0229 H   0  0  0  0  0  0  0  0  0  0  0  0
  108.2321   66.7878   31.0229 H   0  0  0  0  0  0  0  0  0  0  0  0
  111.6756   66.3392   40.7217 H   0  0  0  0  0  0  0  0  0  0  0  0
  111.9611   64.6169   41.2024 H   0  0  0  0  0  0  0  0  0  0  0  0
  1  7  2  0
  1 11  1  0
  2  8  1  0
  2 11  2  0
  3  5  2  0
  3 12  1  0
  4  6  1  0
  4 12  2  0
  5 13  1  0
  6 13  2  0
  7 14  1  0
  8 14  2  0
  9 15  2  0
  9 20  1  0
 10 19  2  0
 10 20  1  0
 11 15  1  0
 12 16  1  0
 13 18  1  0
 14 21  1  0
 15 19  1  0
 17 21  1  0
 18 20  1  0
  1 22  1  0
  2 23  1  0
  3 24  1  0
  4 25  1  0
  5 26  1  0
  6 27  1  0
  7 28  1  0
  8 29  1  0
  9 30  1  0
 10 31  1  0
 16 32  1  0
 16 33  1  0
 16 34  1  0
 17 35  1  0
 17 36  1  0
 17 37  1  0
 18 38  1  0
 18 39  1  0
M  END
>  <s_m_entry_id>  (42) 
21860

>  <s_m_Source_Path>  (42) 
C:\Users\vinicius\Downloads\Ligands_Ecoli

>  <s_m_Source_File>  (42) 
Ligands_Ecoli_o.sdf

>  <i_m_Source_File_Index>  (42) 
34

>  <i_f3d_flags>  (42) 
0

>  <r_lp_tautomer_probability>  (42) 
1

>  <r_epik_Ionization_Penalty>  (42) 
  0.0340

>  <r_epik_State_Penalty>  (42) 
  0.0282

>  <i_epik_Tot_Q>  (42) 
0

>  <s_m_job_name>  (42) 
ligs_ecFabI_ligprep_2

>  <class_value>  (42) 
0

>  <FRED Chemgauss4 score>  (42) 
-15.816672

>  <Name>  (42) 
CHEMBL65914

>  <Set>  (42) 
training

>  <HBA count>  (42) 
3

>  <HBD count>  (42) 
0

>  <ExactMolWt>  (42) 
278.1419131960005

>  <NumRotatableBounds>  (42) 
6

>  <FractionCsp3>  (42) 
0.16666666666666666

>  <TPSA>  (42) 
27.05

>  <LogP_WildmanCrippen>  (42) 
3.915420000000003

>  <General_Cluster>  (42) 
2

>  <Biological_Cluster>  (42) 
2

>  <Physicochemical_Cluster>  (42) 
6

>  <Structural_Cluster>  (42) 
3

$$$$
CHEMBL237639
     RDKit          3D

 45 48  0  0  0  0  0  0  0  0999 V2000
  103.1552   62.5986   44.6819 C   0  0  0  0  0  0  0  0  0  0  0  0
  107.5570   68.7965   31.9220 C   0  0  0  0  0  0  0  0  0  0  0  0
  104.2680   62.6783   45.5191 C   0  0  0  0  0  0  0  0  0  0  0  0
  103.3184   62.6540   43.2977 C   0  0  0  0  0  0  0  0  0  0  0  0
  107.8192   67.4324   31.7950 C   0  0  0  0  0  0  0  0  0  0  0  0
  108.5609   69.6622   32.3561 C   0  0  0  0  0  0  0  0  0  0  0  0
  105.5440   62.8136   44.9721 C   0  0  0  0  0  0  0  0  0  0  0  0
  104.5944   62.7893   42.7507 C   0  0  0  0  0  0  0  0  0  0  0  0
  109.0853   66.9340   32.1022 C   0  0  0  0  0  0  0  0  0  0  0  0
  109.8269   69.1638   32.6633 C   0  0  0  0  0  0  0  0  0  0  0  0
  108.1657   63.6155   43.4960 C   0  0  0  0  0  0  0  0  0  0  0  0
  111.6247   64.6704   34.2235 C   0  0  0  0  0  0  0  0  0  0  0  0
  105.7072   62.8691   43.5879 C   0  0  0  0  0  0  0  0  0  0  0  0
  110.0891   67.7997   32.5363 C   0  0  0  0  0  0  0  0  0  0  0  0
  107.0267   63.0080   43.0226 C   0  0  0  0  0  0  0  0  0  0  0  0
  111.3724   66.0262   34.2162 C   0  0  0  0  0  0  0  0  0  0  0  0
  108.6939   62.8203   41.5936 C   0  0  0  0  0  0  0  0  0  0  0  0
  110.7274   64.8496   36.2166 C   0  0  0  0  0  0  0  0  0  0  0  0
  110.1623   63.3555   38.1735 C   0  0  0  0  0  0  0  0  0  0  0  0
  109.3933   62.4180   40.3595 C   0  0  0  0  0  0  0  0  0  0  0  0
  109.1998   63.4954   42.6017 N   0  0  0  0  0  0  0  0  0  0  0  0
  111.2559   63.9940   35.3699 N   0  0  0  0  0  0  0  0  0  0  0  0
  107.3804   62.5036   41.8029 N   0  0  0  0  0  0  0  0  0  0  0  0
  110.2178   64.5839   37.5091 N   0  0  0  0  0  0  0  0  0  0  0  0
  109.5856   63.5158   39.4359 N   0  0  0  0  0  0  0  0  0  0  0  0
  110.5530   62.2724   37.7445 O   0  0  0  0  0  0  0  0  0  0  0  0
  110.6421   66.4835   35.6990 S   0  0  0  0  0  0  0  0  0  0  0  0
  111.7174   67.1583   32.9321 S   0  0  0  0  0  0  0  0  0  0  0  0
  102.1489   62.4921   45.1132 H   0  0  0  0  0  0  0  0  0  0  0  0
  106.5586   69.1895   31.6798 H   0  0  0  0  0  0  0  0  0  0  0  0
  104.1393   62.6345   46.6107 H   0  0  0  0  0  0  0  0  0  0  0  0
  102.4408   62.5910   42.6375 H   0  0  0  0  0  0  0  0  0  0  0  0
  107.0276   66.7497   31.4526 H   0  0  0  0  0  0  0  0  0  0  0  0
  108.3542   70.7380   32.4562 H   0  0  0  0  0  0  0  0  0  0  0  0
  106.4216   62.8765   45.6323 H   0  0  0  0  0  0  0  0  0  0  0  0
  104.7231   62.8331   41.6591 H   0  0  0  0  0  0  0  0  0  0  0  0
  109.2921   65.8583   32.0021 H   0  0  0  0  0  0  0  0  0  0  0  0
  110.6185   69.8465   33.0057 H   0  0  0  0  0  0  0  0  0  0  0  0
  108.2386   64.1306   44.4652 H   0  0  0  0  0  0  0  0  0  0  0  0
  112.0911   64.1589   33.3686 H   0  0  0  0  0  0  0  0  0  0  0  0
  110.3787   62.0117   40.6314 H   0  0  0  0  0  0  0  0  0  0  0  0
  108.7659   61.6688   39.8546 H   0  0  0  0  0  0  0  0  0  0  0  0
  106.7695   61.9807   41.1592 H   0  0  0  0  0  0  0  0  0  0  0  0
  109.8421   65.3937   38.0228 H   0  0  0  0  0  0  0  0  0  0  0  0
  109.2836   64.4579   39.7224 H   0  0  0  0  0  0  0  0  0  0  0  0
  1  3  2  0
  1  4  1  0
  2  5  2  0
  2  6  1  0
  3  7  1  0
  4  8  2  0
  5  9  1  0
  6 10  2  0
  7 13  2  0
  8 13  1  0
  9 14  2  0
 10 14  1  0
 11 15  2  0
 11 21  1  0
 12 16  2  0
 12 22  1  0
 13 15  1  0
 14 28  1  0
 15 23  1  0
 16 27  1  0
 16 28  1  0
 17 20  1  0
 17 21  2  0
 17 23  1  0
 18 22  2  0
 18 24  1  0
 18 27  1  0
 19 24  1  0
 19 25  1  0
 19 26  2  0
 20 25  1  0
  1 29  1  0
  2 30  1  0
  3 31  1  0
  4 32  1  0
  5 33  1  0
  6 34  1  0
  7 35  1  0
  8 36  1  0
  9 37  1  0
 10 38  1  0
 11 39  1  0
 12 40  1  0
 20 41  1  0
 20 42  1  0
 23 43  1  0
 24 44  1  0
 25 45  1  0
M  END
>  <s_m_entry_id>  (43) 
21909

>  <s_m_Source_Path>  (43) 
C:\Users\vinicius\Downloads\Ligands_Ecoli

>  <s_m_Source_File>  (43) 
Ligands_Ecoli_o.sdf

>  <i_m_Source_File_Index>  (43) 
59

>  <i_f3d_flags>  (43) 
0

>  <r_lp_tautomer_probability>  (43) 
0.49950024419958

>  <r_epik_Ionization_Penalty>  (43) 
  0.1039

>  <r_epik_State_Penalty>  (43) 
  0.4715

>  <i_epik_Tot_Q>  (43) 
0

>  <s_m_job_name>  (43) 
ligs_ecFabI_ligprep_2

>  <class_value>  (43) 
0

>  <FRED Chemgauss4 score>  (43) 
-15.361132

>  <Name>  (43) 
CHEMBL237639

>  <Set>  (43) 
training

>  <HBA count>  (43) 
5

>  <HBD count>  (43) 
3

>  <ExactMolWt>  (43) 
407.0874521640005

>  <NumRotatableBounds>  (43) 
6

>  <FractionCsp3>  (43) 
0.05

>  <TPSA>  (43) 
82.69999999999999

>  <LogP_WildmanCrippen>  (43) 
5.006100000000002

>  <General_Cluster>  (43) 
3

>  <Biological_Cluster>  (43) 
2

>  <Physicochemical_Cluster>  (43) 
7

>  <Structural_Cluster>  (43) 
4

$$$$
CHEMBL244804
     RDKit          3D

 44 47  0  0  0  0  0  0  0  0999 V2000
  109.4049   68.6673   31.5328 C   0  0  0  0  0  0  0  0  0  0  0  0
  108.8739   67.3779   31.5640 C   0  0  0  0  0  0  0  0  0  0  0  0
  110.5168   68.9829   32.3138 C   0  0  0  0  0  0  0  0  0  0  0  0
  103.9252   62.9187   43.8148 C   0  0  0  0  0  0  0  0  0  0  0  0
  103.4075   63.6843   42.7760 C   0  0  0  0  0  0  0  0  0  0  0  0
  109.4547   66.4040   32.3763 C   0  0  0  0  0  0  0  0  0  0  0  0
  111.0976   68.0089   33.1261 C   0  0  0  0  0  0  0  0  0  0  0  0
  105.2127   63.1655   44.2781 C   0  0  0  0  0  0  0  0  0  0  0  0
  104.2113   64.6768   42.2388 C   0  0  0  0  0  0  0  0  0  0  0  0
  108.6606   63.0947   42.0784 C   0  0  0  0  0  0  0  0  0  0  0  0
  111.1673   64.3689   33.7237 C   0  0  0  0  0  0  0  0  0  0  0  0
  110.5665   66.7195   33.1574 C   0  0  0  0  0  0  0  0  0  0  0  0
  111.1646   65.7170   33.9939 C   0  0  0  0  0  0  0  0  0  0  0  0
  105.9358   64.1811   43.6735 C   0  0  0  0  0  0  0  0  0  0  0  0
  108.5517   64.2653   42.7995 C   0  0  0  0  0  0  0  0  0  0  0  0
  112.2036   64.8136   35.6170 C   0  0  0  0  0  0  0  0  0  0  0  0
  109.9843   64.3539   40.8650 C   0  0  0  0  0  0  0  0  0  0  0  0
  111.4108   64.1433   38.7911 C   0  0  0  0  0  0  0  0  0  0  0  0
  112.9483   64.5418   36.8606 C   0  0  0  0  0  0  0  0  0  0  0  0
  105.4667   64.9459   42.6623 N   0  0  0  0  0  0  0  0  0  0  0  0
  109.4813   63.1438   40.9685 N   0  0  0  0  0  0  0  0  0  0  0  0
  111.8115   65.9873   35.1737 N   0  0  0  0  0  0  0  0  0  0  0  0
  111.8368   63.8033   34.7720 N   0  0  0  0  0  0  0  0  0  0  0  0
  110.8716   64.8396   39.8764 N   0  0  0  0  0  0  0  0  0  0  0  0
  112.2453   64.9813   38.0470 N   0  0  0  0  0  0  0  0  0  0  0  0
  111.2054   62.9674   38.5001 O   0  0  0  0  0  0  0  0  0  0  0  0
  109.5132   65.4828   42.0686 S   0  0  0  0  0  0  0  0  0  0  0  0
  107.6013   64.5346   44.2396 S   0  0  0  0  0  0  0  0  0  0  0  0
  108.9468   69.4354   30.8923 H   0  0  0  0  0  0  0  0  0  0  0  0
  107.9972   67.1291   30.9480 H   0  0  0  0  0  0  0  0  0  0  0  0
  110.9356   69.9998   32.2891 H   0  0  0  0  0  0  0  0  0  0  0  0
  103.3186   62.1210   44.2683 H   0  0  0  0  0  0  0  0  0  0  0  0
  102.3917   63.5076   42.3927 H   0  0  0  0  0  0  0  0  0  0  0  0
  109.0360   65.3871   32.4009 H   0  0  0  0  0  0  0  0  0  0  0  0
  111.9744   68.2577   33.7420 H   0  0  0  0  0  0  0  0  0  0  0  0
  105.6436   62.5732   45.0987 H   0  0  0  0  0  0  0  0  0  0  0  0
  103.8028   65.2832   41.4170 H   0  0  0  0  0  0  0  0  0  0  0  0
  108.1266   62.1781   42.3694 H   0  0  0  0  0  0  0  0  0  0  0  0
  110.7272   63.8580   32.8546 H   0  0  0  0  0  0  0  0  0  0  0  0
  113.1208   63.4581   36.9364 H   0  0  0  0  0  0  0  0  0  0  0  0
  113.8920   65.1046   36.8093 H   0  0  0  0  0  0  0  0  0  0  0  0
  112.0297   62.7999   34.9018 H   0  0  0  0  0  0  0  0  0  0  0  0
  111.1546   65.8258   39.9673 H   0  0  0  0  0  0  0  0  0  0  0  0
  112.3657   65.9562   38.3569 H   0  0  0  0  0  0  0  0  0  0  0  0
  1  2  2  0
  1  3  1  0
  2  6  1  0
  3  7  2  0
  4  5  2  0
  4  8  1  0
  5  9  1  0
  6 12  2  0
  7 12  1  0
  8 14  2  0
  9 20  2  0
 10 15  2  0
 10 21  1  0
 11 13  2  0
 11 23  1  0
 12 13  1  0
 13 22  1  0
 14 20  1  0
 14 28  1  0
 15 27  1  0
 15 28  1  0
 16 19  1  0
 16 22  2  0
 16 23  1  0
 17 21  2  0
 17 24  1  0
 17 27  1  0
 18 24  1  0
 18 25  1  0
 18 26  2  0
 19 25  1  0
  1 29  1  0
  2 30  1  0
  3 31  1  0
  4 32  1  0
  5 33  1  0
  6 34  1  0
  7 35  1  0
  8 36  1  0
  9 37  1  0
 10 38  1  0
 11 39  1  0
 19 40  1  0
 19 41  1  0
 23 42  1  0
 24 43  1  0
 25 44  1  0
M  END
>  <s_m_entry_id>  (44) 
21940

>  <s_m_Source_Path>  (44) 
C:\Users\vinicius\Downloads\Ligands_Ecoli

>  <s_m_Source_File>  (44) 
Ligands_Ecoli_o.sdf

>  <i_m_Source_File_Index>  (44) 
73

>  <i_f3d_flags>  (44) 
0

>  <r_lp_tautomer_probability>  (44) 
0.49950024419958

>  <r_epik_Ionization_Penalty>  (44) 
  0.0907

>  <r_epik_State_Penalty>  (44) 
  0.4405

>  <i_epik_Tot_Q>  (44) 
0

>  <s_m_job_name>  (44) 
ligs_ecFabI_ligprep_2

>  <class_value>  (44) 
0

>  <FRED Chemgauss4 score>  (44) 
-14.428142

>  <Name>  (44) 
CHEMBL244804

>  <Set>  (44) 
training

>  <HBA count>  (44) 
6

>  <HBD count>  (44) 
3

>  <ExactMolWt>  (44) 
408.0827011320006

>  <NumRotatableBounds>  (44) 
6

>  <FractionCsp3>  (44) 
0.05263157894736842

>  <TPSA>  (44) 
95.59

>  <LogP_WildmanCrippen>  (44) 
4.401100000000002

>  <General_Cluster>  (44) 
3

>  <Biological_Cluster>  (44) 
2

>  <Physicochemical_Cluster>  (44) 
7

>  <Structural_Cluster>  (44) 
4

$$$$
CHEMBL63871
     RDKit          3D

 30 32  0  0  1  0  0  0  0  0999 V2000
  111.9983   65.5794   39.8599 C   0  0  0  0  0  0  0  0  0  0  0  0
  111.2899   64.3926   39.6720 C   0  0  0  0  0  0  0  0  0  0  0  0
  112.2855   66.4004   38.7694 C   0  0  0  0  0  0  0  0  0  0  0  0
  110.8688   64.0267   38.3936 C   0  0  0  0  0  0  0  0  0  0  0  0
  111.8644   66.0345   37.4909 C   0  0  0  0  0  0  0  0  0  0  0  0
  110.6813   68.9003   32.8698 C   0  0  0  0  0  0  0  0  0  0  0  0
  109.9540   69.7814   32.1002 C   0  0  0  0  0  0  0  0  0  0  0  0
  109.1339   67.4725   31.8851 C   0  0  0  0  0  0  0  0  0  0  0  0
  110.2064   67.5627   32.7452 C   0  0  0  0  0  0  0  0  0  0  0  0
  111.1560   64.8476   37.3030 C   0  0  0  0  0  0  0  0  0  0  0  0
  110.7647   66.3916   33.4362 C   0  0  0  0  0  0  0  0  0  0  0  0
  111.4256   64.2985   33.4990 C   0  0  0  0  0  0  0  0  0  0  0  0
  111.6412   64.9736   34.8408 C   0  0  2  0  0  0  0  0  0  0  0  0
  110.7013   64.4526   35.9208 C   0  0  0  0  0  0  0  0  0  0  0  0
  111.3426   66.3933   34.5958 N   0  0  0  0  0  0  0  0  0  0  0  0
  110.6429   65.2251   32.7598 O   0  0  0  0  0  0  0  0  0  0  0  0
  108.7042   68.9960   31.2321 S   0  0  0  0  0  0  0  0  0  0  0  0
  112.3305   65.8679   40.8681 H   0  0  0  0  0  0  0  0  0  0  0  0
  111.0633   63.7452   40.5320 H   0  0  0  0  0  0  0  0  0  0  0  0
  112.8441   67.3364   38.9176 H   0  0  0  0  0  0  0  0  0  0  0  0
  110.3102   63.0907   38.2454 H   0  0  0  0  0  0  0  0  0  0  0  0
  112.0909   66.6819   36.6309 H   0  0  0  0  0  0  0  0  0  0  0  0
  111.5291   69.1948   33.5058 H   0  0  0  0  0  0  0  0  0  0  0  0
  110.1526   70.8621   32.0493 H   0  0  0  0  0  0  0  0  0  0  0  0
  108.6148   66.5326   31.6461 H   0  0  0  0  0  0  0  0  0  0  0  0
  112.3869   64.1134   32.9973 H   0  0  0  0  0  0  0  0  0  0  0  0
  110.9352   63.3187   33.5963 H   0  0  0  0  0  0  0  0  0  0  0  0
  112.6623   64.7846   35.2037 H   0  0  0  0  0  0  0  0  0  0  0  0
  110.6634   63.3550   35.8594 H   0  0  0  0  0  0  0  0  0  0  0  0
  109.7087   64.8949   35.7500 H   0  0  0  0  0  0  0  0  0  0  0  0
  1  2  2  0
  1  3  1  0
  2  4  1  0
  3  5  2  0
  4 10  2  0
  5 10  1  0
  6  7  2  0
  6  9  1  0
  7 17  1  0
  8  9  2  0
  8 17  1  0
  9 11  1  0
 10 14  1  0
 11 15  2  0
 11 16  1  0
 12 13  1  0
 12 16  1  0
 13 14  1  0
 13 15  1  0
  1 18  1  0
  2 19  1  0
  3 20  1  0
  4 21  1  0
  5 22  1  0
  6 23  1  0
  7 24  1  0
  8 25  1  0
 12 26  1  0
 12 27  1  0
 13 28  1  1
 14 29  1  0
 14 30  1  0
M  END
>  <s_m_entry_id>  (45) 
21862

>  <s_m_Source_Path>  (45) 
C:\Users\vinicius\Downloads\Ligands_Ecoli

>  <s_m_Source_File>  (45) 
Ligands_Ecoli_o.sdf

>  <i_m_Source_File_Index>  (45) 
35

>  <i_f3d_flags>  (45) 
0

>  <r_epik_Ionization_Penalty>  (45) 
  0.0006

>  <r_epik_State_Penalty>  (45) 
  0.0004

>  <i_epik_Tot_Q>  (45) 
0

>  <s_m_job_name>  (45) 
ligs_ecFabI_ligprep_2

>  <class_value>  (45) 
0

>  <FRED Chemgauss4 score>  (45) 
-14.103622

>  <Name>  (45) 
CHEMBL63871

>  <Set>  (45) 
training

>  <HBA count>  (45) 
3

>  <HBD count>  (45) 
0

>  <ExactMolWt>  (45) 
243.071785036

>  <NumRotatableBounds>  (45) 
3

>  <FractionCsp3>  (45) 
0.21428571428571427

>  <TPSA>  (45) 
21.59

>  <LogP_WildmanCrippen>  (45) 
3.1362000000000014

>  <General_Cluster>  (45) 
2

>  <Biological_Cluster>  (45) 
2

>  <Physicochemical_Cluster>  (45) 
6

>  <Structural_Cluster>  (45) 
1

$$$$
CHEMBL44183
     RDKit          3D

 50 53  0  0  0  0  0  0  0  0999 V2000
  109.5778   69.8871   31.6228 C   0  0  0  0  0  0  0  0  0  0  0  0
  108.2818   69.4102   31.4361 C   0  0  0  0  0  0  0  0  0  0  0  0
  110.4953   69.1795   32.4079 C   0  0  0  0  0  0  0  0  0  0  0  0
  107.8619   68.2145   32.0259 C   0  0  0  0  0  0  0  0  0  0  0  0
  110.7415   67.0194   33.8493 C   0  0  0  0  0  0  0  0  0  0  0  0
  110.3260   65.5724   39.8587 C   0  0  0  0  0  0  0  0  0  0  0  0
  112.4547   66.5037   40.3516 C   0  0  0  0  0  0  0  0  0  0  0  0
  110.0947   67.9715   33.0127 C   0  0  0  0  0  0  0  0  0  0  0  0
  111.6337   65.8291   39.4655 C   0  0  0  0  0  0  0  0  0  0  0  0
  109.8877   65.9756   41.1209 C   0  0  0  0  0  0  0  0  0  0  0  0
  108.7898   67.5178   32.8081 C   0  0  0  0  0  0  0  0  0  0  0  0
  109.8337   66.0249   34.1315 C   0  0  0  0  0  0  0  0  0  0  0  0
  110.7922   66.6438   41.9454 C   0  0  0  0  0  0  0  0  0  0  0  0
  109.1557   66.7446   43.7884 C   0  0  0  0  0  0  0  0  0  0  0  0
  112.1188   65.4164   38.1612 C   0  0  0  0  0  0  0  0  0  0  0  0
  111.5579   64.4606   37.3833 C   0  0  0  0  0  0  0  0  0  0  0  0
  112.1721   64.1021   36.0709 C   0  0  0  0  0  0  0  0  0  0  0  0
  108.4613   65.8041   41.5475 C   0  0  0  0  0  0  0  0  0  0  0  0
  108.3614   65.6799   43.0597 C   0  0  0  0  0  0  0  0  0  0  0  0
  107.4541   65.5321   33.5479 C   0  0  0  0  0  0  0  0  0  0  0  0
  111.8835   63.9301   33.6288 C   0  0  0  0  0  0  0  0  0  0  0  0
  109.9930   64.7868   34.9659 C   0  0  0  0  0  0  0  0  0  0  0  0
  112.0647   66.9232   41.5760 N   0  0  0  0  0  0  0  0  0  0  0  0
  108.6596   66.3341   33.4989 N   0  0  0  0  0  0  0  0  0  0  0  0
  110.3651   67.0818   43.2136 N   0  0  0  0  0  0  0  0  0  0  0  0
  111.3658   64.2853   34.9439 N   0  0  0  0  0  0  0  0  0  0  0  0
  108.7771   67.1973   44.8687 O   0  0  0  0  0  0  0  0  0  0  0  0
  113.3177   63.6510   36.0343 O   0  0  0  0  0  0  0  0  0  0  0  0
  109.8833   70.8309   31.1475 H   0  0  0  0  0  0  0  0  0  0  0  0
  107.5782   69.9837   30.8148 H   0  0  0  0  0  0  0  0  0  0  0  0
  111.5168   69.5618   32.5511 H   0  0  0  0  0  0  0  0  0  0  0  0
  106.8397   67.8352   31.8805 H   0  0  0  0  0  0  0  0  0  0  0  0
  111.7807   67.0695   34.2063 H   0  0  0  0  0  0  0  0  0  0  0  0
  109.6375   65.0524   39.1764 H   0  0  0  0  0  0  0  0  0  0  0  0
  113.4891   66.7116   40.0404 H   0  0  0  0  0  0  0  0  0  0  0  0
  113.0155   65.9215   37.7729 H   0  0  0  0  0  0  0  0  0  0  0  0
  110.6458   63.9461   37.7199 H   0  0  0  0  0  0  0  0  0  0  0  0
  107.8789   66.6772   41.2181 H   0  0  0  0  0  0  0  0  0  0  0  0
  108.0648   64.8851   41.0912 H   0  0  0  0  0  0  0  0  0  0  0  0
  108.7420   64.6917   43.3574 H   0  0  0  0  0  0  0  0  0  0  0  0
  107.3040   65.8087   43.3341 H   0  0  0  0  0  0  0  0  0  0  0  0
  107.1782   65.3485   34.5968 H   0  0  0  0  0  0  0  0  0  0  0  0
  106.6369   66.0672   33.0421 H   0  0  0  0  0  0  0  0  0  0  0  0
  107.6319   64.5716   33.0421 H   0  0  0  0  0  0  0  0  0  0  0  0
  112.7855   63.3112   33.7447 H   0  0  0  0  0  0  0  0  0  0  0  0
  111.1198   63.3649   33.0745 H   0  0  0  0  0  0  0  0  0  0  0  0
  112.1360   64.8461   33.0745 H   0  0  0  0  0  0  0  0  0  0  0  0
  109.7168   65.0205   36.0047 H   0  0  0  0  0  0  0  0  0  0  0  0
  109.3396   64.0076   34.5464 H   0  0  0  0  0  0  0  0  0  0  0  0
  110.9970   67.6947   43.7483 H   0  0  0  0  0  0  0  0  0  0  0  0
  1  2  2  0
  1  3  1  0
  2  4  1  0
  3  8  2  0
  4 11  2  0
  5  8  1  0
  5 12  2  0
  6  9  2  0
  6 10  1  0
  7  9  1  0
  7 23  2  0
  8 11  1  0
  9 15  1  0
 10 13  2  0
 10 18  1  0
 11 24  1  0
 12 22  1  0
 12 24  1  0
 13 23  1  0
 13 25  1  0
 14 19  1  0
 14 25  1  0
 14 27  2  0
 15 16  2  0
 16 17  1  0
 17 26  1  0
 17 28  2  0
 18 19  1  0
 20 24  1  0
 21 26  1  0
 22 26  1  0
  1 29  1  0
  2 30  1  0
  3 31  1  0
  4 32  1  0
  5 33  1  0
  6 34  1  0
  7 35  1  0
 15 36  1  0
 16 37  1  0
 18 38  1  0
 18 39  1  0
 19 40  1  0
 19 41  1  0
 20 42  1  0
 20 43  1  0
 20 44  1  0
 21 45  1  0
 21 46  1  0
 21 47  1  0
 22 48  1  0
 22 49  1  0
 25 50  1  0
M  END
>  <s_m_entry_id>  (46) 
21812

>  <s_m_Source_Path>  (46) 
C:\Users\vinicius\Downloads\Ligands_Ecoli

>  <s_m_Source_File>  (46) 
Ligands_Ecoli_o.sdf

>  <i_m_Source_File_Index>  (46) 
5

>  <i_f3d_flags>  (46) 
0

>  <r_lp_tautomer_probability>  (46) 
1

>  <r_epik_Ionization_Penalty>  (46) 
  0.0001

>  <r_epik_State_Penalty>  (46) 
  0.0000

>  <i_epik_Tot_Q>  (46) 
0

>  <s_m_job_name>  (46) 
ligs_ecFabI_ligprep_2

>  <class_value>  (46) 
1

>  <FRED Chemgauss4 score>  (46) 
-14.445948

>  <Name>  (46) 
CHEMBL44183

>  <Set>  (46) 
training

>  <HBA count>  (46) 
4

>  <HBD count>  (46) 
1

>  <ExactMolWt>  (46) 
374.17427594400067

>  <NumRotatableBounds>  (46) 
6

>  <FractionCsp3>  (46) 
0.22727272727272727

>  <TPSA>  (46) 
67.23

>  <LogP_WildmanCrippen>  (46) 
3.129800000000002

>  <General_Cluster>  (46) 
1

>  <Biological_Cluster>  (46) 
1

>  <Physicochemical_Cluster>  (46) 
3

>  <Structural_Cluster>  (46) 
7

$$$$
CHEMBL2178301
     RDKit          3D

 39 40  0  0  0  0  0  0  0  0999 V2000
  110.2717   63.8173   39.5018 C   0  0  0  0  0  0  0  0  0  0  0  0
  109.6749   66.2302   34.6218 C   0  0  0  0  0  0  0  0  0  0  0  0
  110.7107   63.5616   38.2028 C   0  0  0  0  0  0  0  0  0  0  0  0
  110.3798   65.5826   35.6363 C   0  0  0  0  0  0  0  0  0  0  0  0
  111.7896   65.6915   39.6459 C   0  0  0  0  0  0  0  0  0  0  0  0
  111.1051   65.1992   32.9699 C   0  0  0  0  0  0  0  0  0  0  0  0
  110.8111   64.8823   40.2234 C   0  0  0  0  0  0  0  0  0  0  0  0
  110.0375   66.0385   33.2886 C   0  0  0  0  0  0  0  0  0  0  0  0
  111.8100   64.5516   33.9845 C   0  0  0  0  0  0  0  0  0  0  0  0
  111.4473   64.7433   35.3177 C   0  0  0  0  0  0  0  0  0  0  0  0
  111.6892   64.3708   37.6253 C   0  0  0  0  0  0  0  0  0  0  0  0
  112.2286   65.4357   38.3468 C   0  0  0  0  0  0  0  0  0  0  0  0
  110.3539   65.1490   41.5780 C   0  0  0  0  0  0  0  0  0  0  0  0
  111.3194   65.7809   42.5864 C   0  0  0  0  0  0  0  0  0  0  0  0
  109.8769   68.0972   31.8664 C   0  0  0  0  0  0  0  0  0  0  0  0
  107.5077   64.7567   43.5382 C   0  0  0  0  0  0  0  0  0  0  0  0
  109.2838   66.7318   32.2042 C   0  0  0  0  0  0  0  0  0  0  0  0
  109.1236   64.8364   41.9276 N   0  0  0  0  0  0  0  0  0  0  0  0
  112.7893   63.7832   33.6735 O   0  0  0  0  0  1  0  0  0  0  0  0
  112.1173   64.1210   36.3577 O   0  0  0  0  0  0  0  0  0  0  0  0
  108.8503   65.1301   43.2693 O   0  0  0  0  0  0  0  0  0  0  0  0
  113.1687   66.2173   37.7978 F   0  0  0  0  0  0  0  0  0  0  0  0
  109.5001   63.1791   39.9572 H   0  0  0  0  0  0  0  0  0  0  0  0
  108.8330   66.8921   34.8731 H   0  0  0  0  0  0  0  0  0  0  0  0
  110.2853   62.7218   37.6338 H   0  0  0  0  0  0  0  0  0  0  0  0
  110.0938   65.7338   36.6877 H   0  0  0  0  0  0  0  0  0  0  0  0
  112.2150   66.5313   40.2149 H   0  0  0  0  0  0  0  0  0  0  0  0
  111.3911   65.0480   31.9185 H   0  0  0  0  0  0  0  0  0  0  0  0
  110.9794   65.5584   43.6086 H   0  0  0  0  0  0  0  0  0  0  0  0
  112.3278   65.3675   42.4372 H   0  0  0  0  0  0  0  0  0  0  0  0
  111.3441   66.8705   42.4372 H   0  0  0  0  0  0  0  0  0  0  0  0
  110.1108   68.6357   32.7966 H   0  0  0  0  0  0  0  0  0  0  0  0
  110.7974   67.9621   31.2796 H   0  0  0  0  0  0  0  0  0  0  0  0
  109.1499   68.6778   31.2796 H   0  0  0  0  0  0  0  0  0  0  0  0
  107.3502   64.7129   44.6260 H   0  0  0  0  0  0  0  0  0  0  0  0
  106.8255   65.4992   43.0985 H   0  0  0  0  0  0  0  0  0  0  0  0
  107.3068   63.7686   43.0985 H   0  0  0  0  0  0  0  0  0  0  0  0
  109.3055   66.1038   31.3014 H   0  0  0  0  0  0  0  0  0  0  0  0
  108.2548   66.8909   32.5590 H   0  0  0  0  0  0  0  0  0  0  0  0
  1  3  2  0
  1  7  1  0
  2  4  2  0
  2  8  1  0
  3 11  1  0
  4 10  1  0
  5  7  2  0
  5 12  1  0
  6  8  2  0
  6  9  1  0
  7 13  1  0
  8 17  1  0
  9 10  2  0
  9 19  1  0
 10 20  1  0
 11 12  2  0
 11 20  1  0
 12 22  1  0
 13 14  1  0
 13 18  2  0
 15 17  1  0
 16 21  1  0
 18 21  1  0
  1 23  1  0
  2 24  1  0
  3 25  1  0
  4 26  1  0
  5 27  1  0
  6 28  1  0
 14 29  1  0
 14 30  1  0
 14 31  1  0
 15 32  1  0
 15 33  1  0
 15 34  1  0
 16 35  1  0
 16 36  1  0
 16 37  1  0
 17 38  1  0
 17 39  1  0
M  CHG  1  19  -1
M  END
>  <s_m_entry_id>  (47) 
22060

>  <s_m_Source_Path>  (47) 
C:\Users\vinicius\Downloads\Ligands_Ecoli

>  <s_m_Source_File>  (47) 
Ligands_Ecoli_o.sdf

>  <i_m_Source_File_Index>  (47) 
136

>  <i_f3d_flags>  (47) 
0

>  <r_epik_Ionization_Penalty>  (47) 
  1.3104

>  <r_epik_State_Penalty>  (47) 
  1.3851

>  <i_epik_Tot_Q>  (47) 
-1

>  <s_m_job_name>  (47) 
ligs_ecFabI_ligprep_2

>  <class_value>  (47) 
0

>  <FRED Chemgauss4 score>  (47) 
-15.490154

>  <Name>  (47) 
CHEMBL2178301

>  <Set>  (47) 
training

>  <HBA count>  (47) 
4

>  <HBD count>  (47) 
0

>  <ExactMolWt>  (47) 
302.1197952039105

>  <NumRotatableBounds>  (47) 
8

>  <FractionCsp3>  (47) 
0.23529411764705882

>  <TPSA>  (47) 
53.88000000000001

>  <LogP_WildmanCrippen>  (47) 
3.6244000000000023

>  <General_Cluster>  (47) 
1

>  <Biological_Cluster>  (47) 
2

>  <Physicochemical_Cluster>  (47) 
3

>  <Structural_Cluster>  (47) 
3

$$$$
CHEMBL47386
     RDKit          3D

 36 38  0  0  1  0  0  0  0  0999 V2000
  111.2559   67.5182   33.5518 C   0  0  0  0  0  0  0  0  0  0  0  0
  109.1345   66.3648   33.6300 C   0  0  0  0  0  0  0  0  0  0  0  0
  111.1372   66.3006   38.8125 C   0  0  0  0  0  0  0  0  0  0  0  0
  111.5439   64.2310   39.9854 C   0  0  0  0  0  0  0  0  0  0  0  0
  110.4309   66.5434   34.1128 C   0  0  0  0  0  0  0  0  0  0  0  0
  111.1098   64.2001   37.5966 C   0  0  0  0  0  0  0  0  0  0  0  0
  111.0021   65.5965   37.6132 C   0  0  0  0  0  0  0  0  0  0  0  0
  110.7843   68.3146   32.5081 C   0  0  0  0  0  0  0  0  0  0  0  0
  108.6630   67.1611   32.5863 C   0  0  0  0  0  0  0  0  0  0  0  0
  111.4107   65.6176   39.9965 C   0  0  0  0  0  0  0  0  0  0  0  0
  111.3954   63.5249   38.7911 C   0  0  0  0  0  0  0  0  0  0  0  0
  109.4879   68.1360   32.0254 C   0  0  0  0  0  0  0  0  0  0  0  0
  110.9464   63.4197   36.3204 C   0  0  0  0  0  0  0  0  0  0  0  0
  110.9438   65.6768   35.2479 C   0  0  2  0  0  0  0  0  0  0  0  0
  110.3121   64.2786   35.2285 C   0  0  2  0  0  0  0  0  0  0  0  0
  110.7286   66.3481   36.4998 O   0  0  0  0  0  0  0  0  0  0  0  0
  111.6002   69.2632   31.9690 O   0  0  0  0  0  0  0  0  0  0  0  0
  107.3948   66.9763   32.1241 O   0  0  0  0  0  0  0  0  0  0  0  0
  111.5498   66.3057   41.1626 O   0  0  0  0  0  0  0  0  0  0  0  0
  111.5330   62.1679   38.8132 O   0  0  0  0  0  0  0  0  0  0  0  0
  109.0271   68.9144   31.0052 O   0  0  0  0  0  0  0  0  0  0  0  0
  108.9062   64.3727   35.4626 O   0  0  0  0  0  0  0  0  0  0  0  0
  112.2783   67.6589   33.9324 H   0  0  0  0  0  0  0  0  0  0  0  0
  108.4839   65.5960   34.0723 H   0  0  0  0  0  0  0  0  0  0  0  0
  111.0276   67.3951   38.8224 H   0  0  0  0  0  0  0  0  0  0  0  0
  111.7662   63.6925   40.9185 H   0  0  0  0  0  0  0  0  0  0  0  0
  111.9346   63.0773   35.9796 H   0  0  0  0  0  0  0  0  0  0  0  0
  110.2869   62.5617   36.5174 H   0  0  0  0  0  0  0  0  0  0  0  0
  112.0250   65.5240   35.1149 H   0  0  0  0  0  0  0  0  0  0  0  0
  110.4858   63.8205   34.2436 H   0  0  0  0  0  0  0  0  0  0  0  0
  111.2744   69.8332   31.2280 H   0  0  0  0  0  0  0  0  0  0  0  0
  107.0512   67.5366   31.3837 H   0  0  0  0  0  0  0  0  0  0  0  0
  111.7440   65.8206   42.0035 H   0  0  0  0  0  0  0  0  0  0  0  0
  111.4318   61.6464   37.9778 H   0  0  0  0  0  0  0  0  0  0  0  0
  108.1070   68.7877   30.6626 H   0  0  0  0  0  0  0  0  0  0  0  0
  108.7340   64.3842   36.4374 H   0  0  0  0  0  0  0  0  0  0  0  0
  1  5  2  0
  1  8  1  0
  2  5  1  0
  2  9  2  0
  3  7  2  0
  3 10  1  0
  4 10  2  0
  4 11  1  0
  5 14  1  0
  6  7  1  0
  6 11  2  0
  6 13  1  0
  7 16  1  0
  8 12  2  0
  8 17  1  0
  9 12  1  0
  9 18  1  0
 10 19  1  0
 11 20  1  0
 12 21  1  0
 13 15  1  0
 14 15  1  0
 14 16  1  0
 15 22  1  0
  1 23  1  0
  2 24  1  0
  3 25  1  0
  4 26  1  0
 13 27  1  0
 13 28  1  0
 14 29  1  6
 15 30  1  6
 17 31  1  0
 18 32  1  0
 19 33  1  0
 20 34  1  0
 21 35  1  0
 22 36  1  0
M  END
>  <s_m_entry_id>  (48) 
21948

>  <s_m_Source_Path>  (48) 
C:\Users\vinicius\Downloads\Ligands_Ecoli

>  <s_m_Source_File>  (48) 
Ligands_Ecoli_o.sdf

>  <i_m_Source_File_Index>  (48) 
76

>  <i_f3d_flags>  (48) 
0

>  <r_lp_tautomer_probability>  (48) 
0.999999999957461

>  <r_epik_Ionization_Penalty>  (48) 
  0.0297

>  <r_epik_State_Penalty>  (48) 
  0.0181

>  <i_epik_Tot_Q>  (48) 
0

>  <s_m_job_name>  (48) 
ligs_ecFabI_ligprep_2

>  <class_value>  (48) 
0

>  <FRED Chemgauss4 score>  (48) 
-14.587870

>  <Name>  (48) 
CHEMBL47386

>  <Set>  (48) 
training

>  <HBA count>  (48) 
7

>  <HBD count>  (48) 
6

>  <ExactMolWt>  (48) 
306.0739527880003

>  <NumRotatableBounds>  (48) 
7

>  <FractionCsp3>  (48) 
0.2

>  <TPSA>  (48) 
130.61

>  <LogP_WildmanCrippen>  (48) 
1.2517000000000014

>  <General_Cluster>  (48) 
5

>  <Biological_Cluster>  (48) 
2

>  <Physicochemical_Cluster>  (48) 
8

>  <Structural_Cluster>  (48) 
2

$$$$
CHEMBL2178320
     RDKit          3D

 29 30  0  0  0  0  0  0  0  0999 V2000
  110.7863   64.5438   39.6221 C   0  0  0  0  0  0  0  0  0  0  0  0
  109.1702   66.5465   34.0493 C   0  0  0  0  0  0  0  0  0  0  0  0
  109.4651   65.6702   35.0937 C   0  0  0  0  0  0  0  0  0  0  0  0
  110.5075   63.9672   38.3880 C   0  0  0  0  0  0  0  0  0  0  0  0
  111.6404   65.6386   39.6946 C   0  0  0  0  0  0  0  0  0  0  0  0
  111.0704   65.7118   32.8124 C   0  0  0  0  0  0  0  0  0  0  0  0
  109.9728   66.5673   32.9086 C   0  0  0  0  0  0  0  0  0  0  0  0
  110.5626   64.8148   34.9975 C   0  0  0  0  0  0  0  0  0  0  0  0
  111.3653   64.8355   33.8569 C   0  0  0  0  0  0  0  0  0  0  0  0
  111.1033   64.5184   37.2651 C   0  0  0  0  0  0  0  0  0  0  0  0
  112.1857   66.1149   38.5133 C   0  0  0  0  0  0  0  0  0  0  0  0
  109.6562   67.5023   31.7908 C   0  0  0  0  0  0  0  0  0  0  0  0
  108.4296   68.3583   32.0649 C   0  0  0  0  0  0  0  0  0  0  0  0
  111.9383   65.5812   37.2961 N   0  0  0  0  0  0  0  0  0  0  0  0
  112.4402   64.0054   33.7518 O   0  0  0  0  0  0  0  0  0  0  0  0
  110.8399   63.9637   36.0246 O   0  0  0  0  0  0  0  0  0  0  0  0
  113.0105   67.1720   38.5687 F   0  0  0  0  0  0  0  0  0  0  0  0
  107.3259   67.5871   32.1923 F   0  0  0  0  0  0  0  0  0  0  0  0
  108.2012   69.2292   31.0591 F   0  0  0  0  0  0  0  0  0  0  0  0
  108.5654   69.0635   33.2080 F   0  0  0  0  0  0  0  0  0  0  0  0
  110.3330   64.1355   40.5374 H   0  0  0  0  0  0  0  0  0  0  0  0
  108.3047   67.2212   34.1252 H   0  0  0  0  0  0  0  0  0  0  0  0
  108.8321   65.6537   35.9932 H   0  0  0  0  0  0  0  0  0  0  0  0
  109.8350   63.1006   38.3057 H   0  0  0  0  0  0  0  0  0  0  0  0
  111.8757   66.1117   40.6594 H   0  0  0  0  0  0  0  0  0  0  0  0
  111.7034   65.7282   31.9129 H   0  0  0  0  0  0  0  0  0  0  0  0
  110.5192   68.1659   31.6331 H   0  0  0  0  0  0  0  0  0  0  0  0
  109.4410   66.8923   30.9011 H   0  0  0  0  0  0  0  0  0  0  0  0
  112.6568   63.3803   34.4883 H   0  0  0  0  0  0  0  0  0  0  0  0
  1  4  2  0
  1  5  1  0
  2  3  2  0
  2  7  1  0
  3  8  1  0
  4 10  1  0
  5 11  2  0
  6  7  2  0
  6  9  1  0
  7 12  1  0
  8  9  2  0
  8 16  1  0
  9 15  1  0
 10 14  2  0
 10 16  1  0
 11 14  1  0
 11 17  1  0
 12 13  1  0
 13 18  1  0
 13 19  1  0
 13 20  1  0
  1 21  1  0
  2 22  1  0
  3 23  1  0
  4 24  1  0
  5 25  1  0
  6 26  1  0
 12 27  1  0
 12 28  1  0
 15 29  1  0
M  END
>  <s_m_entry_id>  (49) 
22014

>  <s_m_Source_Path>  (49) 
C:\Users\vinicius\Downloads\Ligands_Ecoli

>  <s_m_Source_File>  (49) 
Ligands_Ecoli_o.sdf

>  <i_m_Source_File_Index>  (49) 
107

>  <i_f3d_flags>  (49) 
0

>  <r_lp_tautomer_probability>  (49) 
1

>  <r_epik_Ionization_Penalty>  (49) 
  0.0056

>  <r_epik_State_Penalty>  (49) 
  0.0041

>  <i_epik_Tot_Q>  (49) 
0

>  <s_m_job_name>  (49) 
ligs_ecFabI_ligprep_2

>  <class_value>  (49) 
1

>  <FRED Chemgauss4 score>  (49) 
-16.789759

>  <Name>  (49) 
CHEMBL2178320

>  <Set>  (49) 
training

>  <HBA count>  (49) 
3

>  <HBD count>  (49) 
1

>  <ExactMolWt>  (49) 
287.0569414080003

>  <NumRotatableBounds>  (49) 
4

>  <FractionCsp3>  (49) 
0.15384615384615385

>  <TPSA>  (49) 
42.35000000000001

>  <LogP_WildmanCrippen>  (49) 
3.823400000000001

>  <General_Cluster>  (49) 
4

>  <Biological_Cluster>  (49) 
1

>  <Physicochemical_Cluster>  (49) 
6

>  <Structural_Cluster>  (49) 
3

$$$$
CHEMBL566654
     RDKit          3D

 52 55  0  0  0  0  0  0  0  0999 V2000
  106.5953   68.9151   30.7318 C   0  0  0  0  0  0  0  0  0  0  0  0
  107.5389   69.7011   30.0734 C   0  0  0  0  0  0  0  0  0  0  0  0
  106.9641   68.1111   31.8165 C   0  0  0  0  0  0  0  0  0  0  0  0
  108.8774   69.7094   30.4760 C   0  0  0  0  0  0  0  0  0  0  0  0
  110.5342   66.5344   39.1412 C   0  0  0  0  0  0  0  0  0  0  0  0
  112.4708   65.4534   39.9317 C   0  0  0  0  0  0  0  0  0  0  0  0
  108.3078   68.1030   32.2404 C   0  0  0  0  0  0  0  0  0  0  0  0
  111.6391   65.7372   38.8773 C   0  0  0  0  0  0  0  0  0  0  0  0
  109.0175   67.4288   33.2733 C   0  0  0  0  0  0  0  0  0  0  0  0
  109.2316   68.9007   31.5618 C   0  0  0  0  0  0  0  0  0  0  0  0
  110.2596   67.0325   40.4326 C   0  0  0  0  0  0  0  0  0  0  0  0
  110.3338   67.8227   33.2028 C   0  0  0  0  0  0  0  0  0  0  0  0
  111.1468   66.6511   41.4427 C   0  0  0  0  0  0  0  0  0  0  0  0
  110.0314   67.5225   43.5674 C   0  0  0  0  0  0  0  0  0  0  0  0
  111.9125   65.2400   37.5423 C   0  0  0  0  0  0  0  0  0  0  0  0
  111.4165   65.7609   36.3945 C   0  0  0  0  0  0  0  0  0  0  0  0
  111.7470   65.1369   35.0794 C   0  0  0  0  0  0  0  0  0  0  0  0
  108.7212   67.8703   42.9203 C   0  0  0  0  0  0  0  0  0  0  0  0
  108.9194   68.7205   41.6905 C   0  0  0  0  0  0  0  0  0  0  0  0
  108.4459   66.4750   34.2467 C   0  0  0  0  0  0  0  0  0  0  0  0
  112.0719   65.4619   32.6576 C   0  0  0  0  0  0  0  0  0  0  0  0
  111.5241   67.4376   34.0330 C   0  0  0  0  0  0  0  0  0  0  0  0
  112.2516   65.8909   41.1875 N   0  0  0  0  0  0  0  0  0  0  0  0
  110.4531   68.7107   32.1676 N   0  0  0  0  0  0  0  0  0  0  0  0
  109.1791   67.8802   40.5516 N   0  0  0  0  0  0  0  0  0  0  0  0
  111.0319   66.9658   42.8160 N   0  0  0  0  0  0  0  0  0  0  0  0
  111.7854   66.0004   33.9810 N   0  0  0  0  0  0  0  0  0  0  0  0
  110.1719   67.6899   44.7837 O   0  0  0  0  0  0  0  0  0  0  0  0
  111.9425   63.9226   35.0103 O   0  0  0  0  0  0  0  0  0  0  0  0
  105.5482   68.9266   30.3951 H   0  0  0  0  0  0  0  0  0  0  0  0
  107.2255   70.3249   29.2233 H   0  0  0  0  0  0  0  0  0  0  0  0
  106.2141   67.4931   32.3318 H   0  0  0  0  0  0  0  0  0  0  0  0
  109.6248   70.3287   29.9585 H   0  0  0  0  0  0  0  0  0  0  0  0
  109.8504   66.7861   38.3171 H   0  0  0  0  0  0  0  0  0  0  0  0
  113.3621   64.8372   39.7420 H   0  0  0  0  0  0  0  0  0  0  0  0
  112.5774   64.3681   37.4548 H   0  0  0  0  0  0  0  0  0  0  0  0
  110.7671   66.6480   36.4317 H   0  0  0  0  0  0  0  0  0  0  0  0
  108.2068   66.9413   42.6333 H   0  0  0  0  0  0  0  0  0  0  0  0
  108.1215   68.4435   43.6426 H   0  0  0  0  0  0  0  0  0  0  0  0
  108.0114   69.3137   41.5068 H   0  0  0  0  0  0  0  0  0  0  0  0
  109.7762   69.3920   41.8484 H   0  0  0  0  0  0  0  0  0  0  0  0
  108.6552   66.8243   35.2686 H   0  0  0  0  0  0  0  0  0  0  0  0
  107.3581   66.4071   34.0980 H   0  0  0  0  0  0  0  0  0  0  0  0
  108.8989   65.4837   34.0980 H   0  0  0  0  0  0  0  0  0  0  0  0
  112.5864   64.4949   32.7587 H   0  0  0  0  0  0  0  0  0  0  0  0
  111.1299   65.3203   32.1075 H   0  0  0  0  0  0  0  0  0  0  0  0
  112.7157   66.1640   32.1075 H   0  0  0  0  0  0  0  0  0  0  0  0
  112.4081   67.9732   33.6565 H   0  0  0  0  0  0  0  0  0  0  0  0
  111.3112   67.7069   35.0781 H   0  0  0  0  0  0  0  0  0  0  0  0
  111.3300   69.1702   31.8832 H   0  0  0  0  0  0  0  0  0  0  0  0
  108.5098   67.9146   39.7694 H   0  0  0  0  0  0  0  0  0  0  0  0
  111.8717   66.7280   43.3629 H   0  0  0  0  0  0  0  0  0  0  0  0
  1  2  2  0
  1  3  1  0
  2  4  1  0
  3  7  2  0
  4 10  2  0
  5  8  2  0
  5 11  1  0
  6  8  1  0
  6 23  2  0
  7  9  1  0
  7 10  1  0
  8 15  1  0
  9 12  2  0
  9 20  1  0
 10 24  1  0
 11 13  2  0
 11 25  1  0
 12 22  1  0
 12 24  1  0
 13 23  1  0
 13 26  1  0
 14 18  1  0
 14 26  1  0
 14 28  2  0
 15 16  2  0
 16 17  1  0
 17 27  1  0
 17 29  2  0
 18 19  1  0
 19 25  1  0
 21 27  1  0
 22 27  1  0
  1 30  1  0
  2 31  1  0
  3 32  1  0
  4 33  1  0
  5 34  1  0
  6 35  1  0
 15 36  1  0
 16 37  1  0
 18 38  1  0
 18 39  1  0
 19 40  1  0
 19 41  1  0
 20 42  1  0
 20 43  1  0
 20 44  1  0
 21 45  1  0
 21 46  1  0
 21 47  1  0
 22 48  1  0
 22 49  1  0
 24 50  1  0
 25 51  1  0
 26 52  1  0
M  END
>  <s_m_entry_id>  (50) 
21962

>  <s_m_Source_Path>  (50) 
C:\Users\vinicius\Downloads\Ligands_Ecoli

>  <s_m_Source_File>  (50) 
Ligands_Ecoli_o.sdf

>  <i_m_Source_File_Index>  (50) 
81

>  <i_f3d_flags>  (50) 
0

>  <r_lp_tautomer_probability>  (50) 
1

>  <r_epik_Ionization_Penalty>  (50) 
  0.0006

>  <r_epik_State_Penalty>  (50) 
  0.0000

>  <i_epik_Tot_Q>  (50) 
0

>  <s_m_job_name>  (50) 
ligs_ecFabI_ligprep_2

>  <class_value>  (50) 
1

>  <FRED Chemgauss4 score>  (50) 
-13.904057

>  <Name>  (50) 
CHEMBL566654

>  <Set>  (50) 
training

>  <HBA count>  (50) 
4

>  <HBD count>  (50) 
3

>  <ExactMolWt>  (50) 
389.1851749760007

>  <NumRotatableBounds>  (50) 
6

>  <FractionCsp3>  (50) 
0.22727272727272727

>  <TPSA>  (50) 
90.12

>  <LogP_WildmanCrippen>  (50) 
3.297220000000001

>  <General_Cluster>  (50) 
1

>  <Biological_Cluster>  (50) 
1

>  <Physicochemical_Cluster>  (50) 
3

>  <Structural_Cluster>  (50) 
7

$$$$
CHEMBL302497
     RDKit          3D

 55 59  0  0  0  0  0  0  0  0999 V2000
  109.8916   68.9164   42.9815 C   0  0  0  0  0  0  0  0  0  0  0  0
  109.7381   67.9263   43.9496 C   0  0  0  0  0  0  0  0  0  0  0  0
  110.1425   68.5801   41.6465 C   0  0  0  0  0  0  0  0  0  0  0  0
  111.4560   64.4780   34.7700 C   0  0  0  0  0  0  0  0  0  0  0  0
  109.3004   65.5089   35.1274 C   0  0  0  0  0  0  0  0  0  0  0  0
  108.4061   62.3454   43.5413 C   0  0  0  0  0  0  0  0  0  0  0  0
  107.6595   64.0526   42.0033 C   0  0  0  0  0  0  0  0  0  0  0  0
  109.8296   66.5721   43.6163 C   0  0  0  0  0  0  0  0  0  0  0  0
  111.5625   65.1271   33.5401 C   0  0  0  0  0  0  0  0  0  0  0  0
  109.4069   66.1580   33.8974 C   0  0  0  0  0  0  0  0  0  0  0  0
  107.0800   62.0012   43.8029 C   0  0  0  0  0  0  0  0  0  0  0  0
  106.3334   63.7083   42.2649 C   0  0  0  0  0  0  0  0  0  0  0  0
  110.2402   67.2214   41.2849 C   0  0  0  0  0  0  0  0  0  0  0  0
  110.3249   64.6688   35.5637 C   0  0  0  0  0  0  0  0  0  0  0  0
  110.4783   66.5302   40.0660 C   0  0  0  0  0  0  0  0  0  0  0  0
  108.6959   63.3712   42.6415 C   0  0  0  0  0  0  0  0  0  0  0  0
  110.0806   66.2483   42.2779 C   0  0  0  0  0  0  0  0  0  0  0  0
  106.0436   62.6826   43.1647 C   0  0  0  0  0  0  0  0  0  0  0  0
  110.5380   65.9672   33.1037 C   0  0  0  0  0  0  0  0  0  0  0  0
  110.4534   65.1791   40.3402 C   0  0  0  0  0  0  0  0  0  0  0  0
  110.2124   63.9846   36.8608 C   0  0  0  0  0  0  0  0  0  0  0  0
  110.7093   67.0344   38.6853 C   0  0  0  0  0  0  0  0  0  0  0  0
  110.6609   64.0722   39.3707 C   0  0  0  0  0  0  0  0  0  0  0  0
  111.3819   65.9420   37.8364 C   0  0  0  0  0  0  0  0  0  0  0  0
  109.5575   67.4448   31.5192 C   0  0  0  0  0  0  0  0  0  0  0  0
  110.1265   63.7423   42.3586 C   0  0  0  0  0  0  0  0  0  0  0  0
  110.2169   65.0154   41.6750 N   0  0  0  0  0  0  0  0  0  0  0  0
  110.7109   64.6339   37.9965 N   0  0  0  0  0  0  0  0  0  0  0  0
  109.6742   62.8783   36.8490 O   0  0  0  0  0  0  0  0  0  0  0  0
  104.7497   62.3457   43.4192 O   0  0  0  0  0  0  0  0  0  0  0  0
  110.6416   66.6005   31.9035 O   0  0  0  0  0  0  0  0  0  0  0  0
  109.8147   69.9751   43.2700 H   0  0  0  0  0  0  0  0  0  0  0  0
  109.5418   68.2150   44.9927 H   0  0  0  0  0  0  0  0  0  0  0  0
  110.2621   69.3675   40.8877 H   0  0  0  0  0  0  0  0  0  0  0  0
  112.2640   63.8156   35.1141 H   0  0  0  0  0  0  0  0  0  0  0  0
  108.4085   65.6595   35.7534 H   0  0  0  0  0  0  0  0  0  0  0  0
  109.2234   61.8080   44.0445 H   0  0  0  0  0  0  0  0  0  0  0  0
  107.8880   64.8615   41.2937 H   0  0  0  0  0  0  0  0  0  0  0  0
  109.7086   65.7885   44.3788 H   0  0  0  0  0  0  0  0  0  0  0  0
  112.4545   64.9765   32.9142 H   0  0  0  0  0  0  0  0  0  0  0  0
  108.5989   66.8204   33.5533 H   0  0  0  0  0  0  0  0  0  0  0  0
  106.8515   61.1924   44.5125 H   0  0  0  0  0  0  0  0  0  0  0  0
  105.5161   64.2457   41.7616 H   0  0  0  0  0  0  0  0  0  0  0  0
  109.7458   67.3084   38.2308 H   0  0  0  0  0  0  0  0  0  0  0  0
  111.3646   67.9170   38.7262 H   0  0  0  0  0  0  0  0  0  0  0  0
  111.6082   63.5595   39.5939 H   0  0  0  0  0  0  0  0  0  0  0  0
  109.8330   63.3520   39.4472 H   0  0  0  0  0  0  0  0  0  0  0  0
  111.3398   66.2370   36.7775 H   0  0  0  0  0  0  0  0  0  0  0  0
  112.4231   65.8369   38.1753 H   0  0  0  0  0  0  0  0  0  0  0  0
  109.0585   67.8334   32.4192 H   0  0  0  0  0  0  0  0  0  0  0  0
  109.9410   68.2846   30.9211 H   0  0  0  0  0  0  0  0  0  0  0  0
  108.8372   66.8674   30.9211 H   0  0  0  0  0  0  0  0  0  0  0  0
  110.6742   63.8075   43.3103 H   0  0  0  0  0  0  0  0  0  0  0  0
  110.5627   62.9690   41.7092 H   0  0  0  0  0  0  0  0  0  0  0  0
  104.0140   62.8292   42.9663 H   0  0  0  0  0  0  0  0  0  0  0  0
  1  2  2  0
  1  3  1  0
  2  8  1  0
  3 13  2  0
  4  9  2  0
  4 14  1  0
  5 10  1  0
  5 14  2  0
  6 11  2  0
  6 16  1  0
  7 12  1  0
  7 16  2  0
  8 17  2  0
  9 19  1  0
 10 19  2  0
 11 18  1  0
 12 18  2  0
 13 15  1  0
 13 17  1  0
 14 21  1  0
 15 20  2  0
 15 22  1  0
 16 26  1  0
 17 27  1  0
 18 30  1  0
 19 31  1  0
 20 23  1  0
 20 27  1  0
 21 28  1  0
 21 29  2  0
 22 24  1  0
 23 28  1  0
 24 28  1  0
 25 31  1  0
 26 27  1  0
  1 32  1  0
  2 33  1  0
  3 34  1  0
  4 35  1  0
  5 36  1  0
  6 37  1  0
  7 38  1  0
  8 39  1  0
  9 40  1  0
 10 41  1  0
 11 42  1  0
 12 43  1  0
 22 44  1  0
 22 45  1  0
 23 46  1  0
 23 47  1  0
 24 48  1  0
 24 49  1  0
 25 50  1  0
 25 51  1  0
 25 52  1  0
 26 53  1  0
 26 54  1  0
 30 55  1  0
M  END
>  <s_m_entry_id>  (51) 
21829

>  <s_m_Source_Path>  (51) 
C:\Users\vinicius\Downloads\Ligands_Ecoli

>  <s_m_Source_File>  (51) 
Ligands_Ecoli_o.sdf

>  <i_m_Source_File_Index>  (51) 
15

>  <i_f3d_flags>  (51) 
0

>  <r_lp_tautomer_probability>  (51) 
0.999999999997365

>  <r_epik_Ionization_Penalty>  (51) 
  0.0024

>  <r_epik_State_Penalty>  (51) 
  0.0016

>  <i_epik_Tot_Q>  (51) 
0

>  <s_m_job_name>  (51) 
ligs_ecFabI_ligprep_2

>  <class_value>  (51) 
0

>  <FRED Chemgauss4 score>  (51) 
-13.992659

>  <Name>  (51) 
CHEMBL302497

>  <Set>  (51) 
training

>  <HBA count>  (51) 
4

>  <HBD count>  (51) 
1

>  <ExactMolWt>  (51) 
412.17869262800065

>  <NumRotatableBounds>  (51) 
6

>  <FractionCsp3>  (51) 
0.19230769230769232

>  <TPSA>  (51) 
54.7

>  <LogP_WildmanCrippen>  (51) 
4.602300000000004

>  <General_Cluster>  (51) 
1

>  <Biological_Cluster>  (51) 
2

>  <Physicochemical_Cluster>  (51) 
3

>  <Structural_Cluster>  (51) 
7

$$$$
CHEMBL72725
     RDKit          3D

 51 55  0  0  0  0  0  0  0  0999 V2000
  109.1411   69.1855   43.1019 C   0  0  0  0  0  0  0  0  0  0  0  0
  109.0526   68.2175   44.1000 C   0  0  0  0  0  0  0  0  0  0  0  0
  109.6666   68.8710   41.8436 C   0  0  0  0  0  0  0  0  0  0  0  0
  109.7285   65.5235   36.2649 C   0  0  0  0  0  0  0  0  0  0  0  0
  108.6665   63.2499   44.2045 C   0  0  0  0  0  0  0  0  0  0  0  0
  108.5563   63.1382   41.7936 C   0  0  0  0  0  0  0  0  0  0  0  0
  109.4846   66.9077   43.8739 C   0  0  0  0  0  0  0  0  0  0  0  0
  107.4212   62.6275   44.2903 C   0  0  0  0  0  0  0  0  0  0  0  0
  107.3109   62.5158   41.8794 C   0  0  0  0  0  0  0  0  0  0  0  0
  109.2166   66.1566   35.1324 C   0  0  0  0  0  0  0  0  0  0  0  0
  111.2091   65.5646   33.9008 C   0  0  0  0  0  0  0  0  0  0  0  0
  110.1099   67.5573   41.5909 C   0  0  0  0  0  0  0  0  0  0  0  0
  110.9808   64.9110   36.2155 C   0  0  0  0  0  0  0  0  0  0  0  0
  110.6808   66.8978   40.4686 C   0  0  0  0  0  0  0  0  0  0  0  0
  109.2341   63.5053   42.9561 C   0  0  0  0  0  0  0  0  0  0  0  0
  110.0080   66.6053   42.6115 C   0  0  0  0  0  0  0  0  0  0  0  0
  106.7434   62.2605   43.1278 C   0  0  0  0  0  0  0  0  0  0  0  0
  109.9569   66.1772   33.9503 C   0  0  0  0  0  0  0  0  0  0  0  0
  111.7210   64.9315   35.0334 C   0  0  0  0  0  0  0  0  0  0  0  0
  110.9037   65.5845   40.8248 C   0  0  0  0  0  0  0  0  0  0  0  0
  111.4790   64.2558   37.4344 C   0  0  0  0  0  0  0  0  0  0  0  0
  111.0138   67.3964   39.1069 C   0  0  0  0  0  0  0  0  0  0  0  0
  111.4951   64.5211   39.9716 C   0  0  0  0  0  0  0  0  0  0  0  0
  112.0311   66.4544   38.4404 C   0  0  0  0  0  0  0  0  0  0  0  0
  110.5779   64.1762   42.8633 C   0  0  0  0  0  0  0  0  0  0  0  0
  110.4997   65.4150   42.1180 N   0  0  0  0  0  0  0  0  0  0  0  0
  111.6402   65.0356   38.5858 N   0  0  0  0  0  0  0  0  0  0  0  0
  111.7139   63.0511   37.3489 O   0  0  0  0  0  0  0  0  0  0  0  0
  105.5288   61.6520   43.2117 O   0  0  0  0  0  0  0  0  0  0  0  0
  109.3258   66.9609   32.5540 Cl  0  0  0  0  0  0  0  0  0  0  0  0
  113.2751   64.1851   34.9310 Cl  0  0  0  0  0  0  0  0  0  0  0  0
  108.7938   70.2092   43.3054 H   0  0  0  0  0  0  0  0  0  0  0  0
  108.6362   68.4884   45.0814 H   0  0  0  0  0  0  0  0  0  0  0  0
  109.7329   69.6406   41.0605 H   0  0  0  0  0  0  0  0  0  0  0  0
  109.1447   65.5072   37.1970 H   0  0  0  0  0  0  0  0  0  0  0  0
  109.2010   63.5394   45.1213 H   0  0  0  0  0  0  0  0  0  0  0  0
  109.0039   63.3395   40.8092 H   0  0  0  0  0  0  0  0  0  0  0  0
  109.4157   66.1416   44.6602 H   0  0  0  0  0  0  0  0  0  0  0  0
  106.9737   62.4261   45.2747 H   0  0  0  0  0  0  0  0  0  0  0  0
  106.7763   62.2263   40.9626 H   0  0  0  0  0  0  0  0  0  0  0  0
  108.2291   66.6397   35.1714 H   0  0  0  0  0  0  0  0  0  0  0  0
  111.7929   65.5808   32.9686 H   0  0  0  0  0  0  0  0  0  0  0  0
  110.0984   67.4346   38.4982 H   0  0  0  0  0  0  0  0  0  0  0  0
  111.4493   68.4034   39.1857 H   0  0  0  0  0  0  0  0  0  0  0  0
  112.4828   64.2395   40.3654 H   0  0  0  0  0  0  0  0  0  0  0  0
  110.8399   63.6376   39.9725 H   0  0  0  0  0  0  0  0  0  0  0  0
  112.0948   66.6986   37.3697 H   0  0  0  0  0  0  0  0  0  0  0  0
  113.0034   66.5945   38.9354 H   0  0  0  0  0  0  0  0  0  0  0  0
  110.9411   64.3919   43.8790 H   0  0  0  0  0  0  0  0  0  0  0  0
  111.2673   63.4990   42.3378 H   0  0  0  0  0  0  0  0  0  0  0  0
  105.0476   61.3915   42.3867 H   0  0  0  0  0  0  0  0  0  0  0  0
  1  2  2  0
  1  3  1  0
  2  7  1  0
  3 12  2  0
  4 10  2  0
  4 13  1  0
  5  8  2  0
  5 15  1  0
  6  9  1  0
  6 15  2  0
  7 16  2  0
  8 17  1  0
  9 17  2  0
 10 18  1  0
 11 18  2  0
 11 19  1  0
 12 14  1  0
 12 16  1  0
 13 19  2  0
 13 21  1  0
 14 20  2  0
 14 22  1  0
 15 25  1  0
 16 26  1  0
 17 29  1  0
 18 30  1  0
 19 31  1  0
 20 23  1  0
 20 26  1  0
 21 27  1  0
 21 28  2  0
 22 24  1  0
 23 27  1  0
 24 27  1  0
 25 26  1  0
  1 32  1  0
  2 33  1  0
  3 34  1  0
  4 35  1  0
  5 36  1  0
  6 37  1  0
  7 38  1  0
  8 39  1  0
  9 40  1  0
 10 41  1  0
 11 42  1  0
 22 43  1  0
 22 44  1  0
 23 45  1  0
 23 46  1  0
 24 47  1  0
 24 48  1  0
 25 49  1  0
 25 50  1  0
 29 51  1  0
M  END
>  <s_m_entry_id>  (52) 
21855

>  <s_m_Source_Path>  (52) 
C:\Users\vinicius\Downloads\Ligands_Ecoli

>  <s_m_Source_File>  (52) 
Ligands_Ecoli_o.sdf

>  <i_m_Source_File_Index>  (52) 
31

>  <i_f3d_flags>  (52) 
0

>  <r_lp_tautomer_probability>  (52) 
0.999999999997365

>  <r_epik_Ionization_Penalty>  (52) 
  0.0024

>  <r_epik_State_Penalty>  (52) 
  0.0016

>  <i_epik_Tot_Q>  (52) 
0

>  <s_m_job_name>  (52) 
ligs_ecFabI_ligprep_2

>  <class_value>  (52) 
0

>  <FRED Chemgauss4 score>  (52) 
-13.178477

>  <Name>  (52) 
CHEMBL72725

>  <Set>  (52) 
training

>  <HBA count>  (52) 
3

>  <HBD count>  (52) 
1

>  <ExactMolWt>  (52) 
450.09018324000056

>  <NumRotatableBounds>  (52) 
4

>  <FractionCsp3>  (52) 
0.16

>  <TPSA>  (52) 
45.47

>  <LogP_WildmanCrippen>  (52) 
5.900500000000004

>  <General_Cluster>  (52) 
1

>  <Biological_Cluster>  (52) 
2

>  <Physicochemical_Cluster>  (52) 
2

>  <Structural_Cluster>  (52) 
7

$$$$
CHEMBL304029
     RDKit          3D

 31 33  0  0  0  0  0  0  0  0999 V2000
  108.6527   67.5021   31.5605 C   0  0  0  0  0  0  0  0  0  0  0  0
  110.3620   69.0971   32.1698 C   0  0  0  0  0  0  0  0  0  0  0  0
  109.4001   66.4786   32.1429 C   0  0  0  0  0  0  0  0  0  0  0  0
  111.1095   68.0736   32.7523 C   0  0  0  0  0  0  0  0  0  0  0  0
  110.4265   64.7140   39.3424 C   0  0  0  0  0  0  0  0  0  0  0  0
  109.8643   64.4338   35.0430 C   0  0  0  0  0  0  0  0  0  0  0  0
  110.9516   65.0707   40.5649 C   0  0  0  0  0  0  0  0  0  0  0  0
  112.1969   66.0745   38.6965 C   0  0  0  0  0  0  0  0  0  0  0  0
  111.1479   65.2954   38.2599 C   0  0  0  0  0  0  0  0  0  0  0  0
  109.1336   68.8114   31.5739 C   0  0  0  0  0  0  0  0  0  0  0  0
  110.6285   66.7643   32.7388 C   0  0  0  0  0  0  0  0  0  0  0  0
  110.9258   65.2458   34.7290 C   0  0  0  0  0  0  0  0  0  0  0  0
  110.8360   65.1079   36.8256 C   0  0  0  0  0  0  0  0  0  0  0  0
  108.3350   69.9064   30.9518 C   0  0  0  0  0  0  0  0  0  0  0  0
  111.4264   65.6696   33.3628 C   0  0  0  0  0  0  0  0  0  0  0  0
  111.5443   65.6749   35.8754 N   0  0  0  0  0  0  0  0  0  0  0  0
  109.7973   64.3378   36.4002 O   0  0  0  0  0  0  0  0  0  0  0  0
  112.3088   66.1025   40.4050 S   0  0  0  0  0  0  0  0  0  0  0  0
  107.6840   67.2768   31.0906 H   0  0  0  0  0  0  0  0  0  0  0  0
  110.7412   70.1296   32.1804 H   0  0  0  0  0  0  0  0  0  0  0  0
  109.0208   65.4461   32.1323 H   0  0  0  0  0  0  0  0  0  0  0  0
  112.0782   68.2989   33.2223 H   0  0  0  0  0  0  0  0  0  0  0  0
  109.5529   64.0575   39.2166 H   0  0  0  0  0  0  0  0  0  0  0  0
  109.1875   63.9468   34.3255 H   0  0  0  0  0  0  0  0  0  0  0  0
  110.5467   64.7326   41.5302 H   0  0  0  0  0  0  0  0  0  0  0  0
  112.8819   66.6149   38.0266 H   0  0  0  0  0  0  0  0  0  0  0  0
  107.8837   70.5252   31.7414 H   0  0  0  0  0  0  0  0  0  0  0  0
  108.9918   70.5301   30.3276 H   0  0  0  0  0  0  0  0  0  0  0  0
  107.5404   69.4716   30.3276 H   0  0  0  0  0  0  0  0  0  0  0  0
  111.3952   64.7952   32.6961 H   0  0  0  0  0  0  0  0  0  0  0  0
  112.4459   66.0581   33.5031 H   0  0  0  0  0  0  0  0  0  0  0  0
  1  3  2  0
  1 10  1  0
  2  4  1  0
  2 10  2  0
  3 11  1  0
  4 11  2  0
  5  7  2  0
  5  9  1  0
  6 12  2  0
  6 17  1  0
  7 18  1  0
  8  9  2  0
  8 18  1  0
  9 13  1  0
 10 14  1  0
 11 15  1  0
 12 15  1  0
 12 16  1  0
 13 16  2  0
 13 17  1  0
  1 19  1  0
  2 20  1  0
  3 21  1  0
  4 22  1  0
  5 23  1  0
  6 24  1  0
  7 25  1  0
  8 26  1  0
 14 27  1  0
 14 28  1  0
 14 29  1  0
 15 30  1  0
 15 31  1  0
M  END
>  <s_m_entry_id>  (53) 
21883

>  <s_m_Source_Path>  (53) 
C:\Users\vinicius\Downloads\Ligands_Ecoli

>  <s_m_Source_File>  (53) 
Ligands_Ecoli_o.sdf

>  <i_m_Source_File_Index>  (53) 
46

>  <i_f3d_flags>  (53) 
0

>  <r_lp_tautomer_probability>  (53) 
1

>  <r_epik_Ionization_Penalty>  (53) 
  0.0000

>  <r_epik_State_Penalty>  (53) 
  0.0000

>  <i_epik_Tot_Q>  (53) 
0

>  <s_m_job_name>  (53) 
ligs_ecFabI_ligprep_2

>  <class_value>  (53) 
0

>  <FRED Chemgauss4 score>  (53) 
-14.571738

>  <Name>  (53) 
CHEMBL304029

>  <Set>  (53) 
training

>  <HBA count>  (53) 
3

>  <HBD count>  (53) 
0

>  <ExactMolWt>  (53) 
255.071785036

>  <NumRotatableBounds>  (53) 
4

>  <FractionCsp3>  (53) 
0.13333333333333333

>  <TPSA>  (53) 
26.03

>  <LogP_WildmanCrippen>  (53) 
4.302320000000003

>  <General_Cluster>  (53) 
2

>  <Biological_Cluster>  (53) 
2

>  <Physicochemical_Cluster>  (53) 
6

>  <Structural_Cluster>  (53) 
1

$$$$
CHEMBL73953
     RDKit          3D

 55 59  0  0  0  0  0  0  0  0999 V2000
  109.0272   68.9666   43.0018 C   0  0  0  0  0  0  0  0  0  0  0  0
  108.9400   68.0327   44.0319 C   0  0  0  0  0  0  0  0  0  0  0  0
  109.5601   68.6125   41.7571 C   0  0  0  0  0  0  0  0  0  0  0  0
  109.6683   65.0817   36.2499 C   0  0  0  0  0  0  0  0  0  0  0  0
  108.5822   63.0693   44.3044 C   0  0  0  0  0  0  0  0  0  0  0  0
  108.4832   62.8748   41.8983 C   0  0  0  0  0  0  0  0  0  0  0  0
  109.3806   66.7185   43.8526 C   0  0  0  0  0  0  0  0  0  0  0  0
  109.1965   65.6607   35.0719 C   0  0  0  0  0  0  0  0  0  0  0  0
  107.3402   62.4429   44.4062 C   0  0  0  0  0  0  0  0  0  0  0  0
  107.2411   62.2483   42.0001 C   0  0  0  0  0  0  0  0  0  0  0  0
  111.7037   64.4382   35.1184 C   0  0  0  0  0  0  0  0  0  0  0  0
  110.0121   67.2935   41.5513 C   0  0  0  0  0  0  0  0  0  0  0  0
  110.9220   64.4704   36.2732 C   0  0  0  0  0  0  0  0  0  0  0  0
  110.5918   66.5995   40.4546 C   0  0  0  0  0  0  0  0  0  0  0  0
  109.1538   63.2854   43.0505 C   0  0  0  0  0  0  0  0  0  0  0  0
  111.2318   65.0171   33.9403 C   0  0  0  0  0  0  0  0  0  0  0  0
  109.9112   66.3763   42.6034 C   0  0  0  0  0  0  0  0  0  0  0  0
  106.6696   62.0323   43.2541 C   0  0  0  0  0  0  0  0  0  0  0  0
  109.9781   65.6284   33.9171 C   0  0  0  0  0  0  0  0  0  0  0  0
  110.8207   65.3005   40.8564 C   0  0  0  0  0  0  0  0  0  0  0  0
  111.4187   63.8602   37.5158 C   0  0  0  0  0  0  0  0  0  0  0  0
  110.9278   67.0533   39.0781 C   0  0  0  0  0  0  0  0  0  0  0  0
  111.4220   64.2121   40.0425 C   0  0  0  0  0  0  0  0  0  0  0  0
  111.9535   66.0952   38.4484 C   0  0  0  0  0  0  0  0  0  0  0  0
  112.0810   64.9723   32.7131 C   0  0  0  0  0  0  0  0  0  0  0  0
  110.4941   63.9606   42.9405 C   0  0  0  0  0  0  0  0  0  0  0  0
  110.4120   65.1728   42.1530 N   0  0  0  0  0  0  0  0  0  0  0  0
  111.5702   64.6799   38.6406 N   0  0  0  0  0  0  0  0  0  0  0  0
  111.6609   62.6548   37.4726 O   0  0  0  0  0  0  0  0  0  0  0  0
  105.4582   61.4199   43.3537 O   0  0  0  0  0  0  0  0  0  0  0  0
  109.5007   66.1966   32.7745 O   0  0  0  0  0  0  0  0  0  0  0  0
  108.6730   69.9945   43.1688 H   0  0  0  0  0  0  0  0  0  0  0  0
  108.5177   68.3344   45.0017 H   0  0  0  0  0  0  0  0  0  0  0  0
  109.6254   69.3553   40.9484 H   0  0  0  0  0  0  0  0  0  0  0  0
  109.0518   65.1071   37.1605 H   0  0  0  0  0  0  0  0  0  0  0  0
  109.1110   63.3929   45.2130 H   0  0  0  0  0  0  0  0  0  0  0  0
  108.9339   63.0451   40.9094 H   0  0  0  0  0  0  0  0  0  0  0  0
  109.3128   65.9793   44.6644 H   0  0  0  0  0  0  0  0  0  0  0  0
  108.2080   66.1428   35.0536 H   0  0  0  0  0  0  0  0  0  0  0  0
  106.8895   62.2727   45.3951 H   0  0  0  0  0  0  0  0  0  0  0  0
  106.7123   61.9246   41.0915 H   0  0  0  0  0  0  0  0  0  0  0  0
  112.6923   63.9563   35.1368 H   0  0  0  0  0  0  0  0  0  0  0  0
  110.0148   67.0652   38.4646 H   0  0  0  0  0  0  0  0  0  0  0  0
  111.3570   68.0650   39.1243 H   0  0  0  0  0  0  0  0  0  0  0  0
  112.4096   63.9499   40.4498 H   0  0  0  0  0  0  0  0  0  0  0  0
  110.7719   63.3252   40.0709 H   0  0  0  0  0  0  0  0  0  0  0  0
  112.0204   66.3031   37.3703 H   0  0  0  0  0  0  0  0  0  0  0  0
  112.9228   66.2579   38.9423 H   0  0  0  0  0  0  0  0  0  0  0  0
  113.1408   64.9164   33.0024 H   0  0  0  0  0  0  0  0  0  0  0  0
  111.8166   64.0869   32.1164 H   0  0  0  0  0  0  0  0  0  0  0  0
  111.9112   65.8806   32.1164 H   0  0  0  0  0  0  0  0  0  0  0  0
  110.8516   64.2130   43.9497 H   0  0  0  0  0  0  0  0  0  0  0  0
  111.1897   63.2700   42.4413 H   0  0  0  0  0  0  0  0  0  0  0  0
  104.9822   61.1284   42.5361 H   0  0  0  0  0  0  0  0  0  0  0  0
  110.0459   66.1802   31.9483 H   0  0  0  0  0  0  0  0  0  0  0  0
  1  2  2  0
  1  3  1  0
  2  7  1  0
  3 12  2  0
  4  8  2  0
  4 13  1  0
  5  9  2  0
  5 15  1  0
  6 10  1  0
  6 15  2  0
  7 17  2  0
  8 19  1  0
  9 18  1  0
 10 18  2  0
 11 13  2  0
 11 16  1  0
 12 14  1  0
 12 17  1  0
 13 21  1  0
 14 20  2  0
 14 22  1  0
 15 26  1  0
 16 19  2  0
 16 25  1  0
 17 27  1  0
 18 30  1  0
 19 31  1  0
 20 23  1  0
 20 27  1  0
 21 28  1  0
 21 29  2  0
 22 24  1  0
 23 28  1  0
 24 28  1  0
 26 27  1  0
  1 32  1  0
  2 33  1  0
  3 34  1  0
  4 35  1  0
  5 36  1  0
  6 37  1  0
  7 38  1  0
  8 39  1  0
  9 40  1  0
 10 41  1  0
 11 42  1  0
 22 43  1  0
 22 44  1  0
 23 45  1  0
 23 46  1  0
 24 47  1  0
 24 48  1  0
 25 49  1  0
 25 50  1  0
 25 51  1  0
 26 52  1  0
 26 53  1  0
 30 54  1  0
 31 55  1  0
M  END
>  <s_m_entry_id>  (54) 
21847

>  <s_m_Source_Path>  (54) 
C:\Users\vinicius\Downloads\Ligands_Ecoli

>  <s_m_Source_File>  (54) 
Ligands_Ecoli_o.sdf

>  <i_m_Source_File_Index>  (54) 
26

>  <i_f3d_flags>  (54) 
0

>  <r_lp_tautomer_probability>  (54) 
0.99999999999473

>  <r_epik_Ionization_Penalty>  (54) 
  0.0156

>  <r_epik_State_Penalty>  (54) 
  0.0103

>  <i_epik_Tot_Q>  (54) 
0

>  <s_m_job_name>  (54) 
ligs_ecFabI_ligprep_2

>  <class_value>  (54) 
0

>  <FRED Chemgauss4 score>  (54) 
-13.040227

>  <Name>  (54) 
CHEMBL73953

>  <Set>  (54) 
training

>  <HBA count>  (54) 
4

>  <HBD count>  (54) 
2

>  <ExactMolWt>  (54) 
412.17869262800065

>  <NumRotatableBounds>  (54) 
6

>  <FractionCsp3>  (54) 
0.19230769230769232

>  <TPSA>  (54) 
65.7

>  <LogP_WildmanCrippen>  (54) 
4.607720000000006

>  <General_Cluster>  (54) 
1

>  <Biological_Cluster>  (54) 
2

>  <Physicochemical_Cluster>  (54) 
3

>  <Structural_Cluster>  (54) 
7

$$$$
CHEMBL245045
     RDKit          3D

 47 50  0  0  0  0  0  0  0  0999 V2000
  109.3033   69.0564   31.1070 C   0  0  0  0  0  0  0  0  0  0  0  0
  109.0126   67.7037   30.9303 C   0  0  0  0  0  0  0  0  0  0  0  0
  110.0650   69.4691   32.2003 C   0  0  0  0  0  0  0  0  0  0  0  0
  109.4836   66.7636   31.8468 C   0  0  0  0  0  0  0  0  0  0  0  0
  110.5360   68.5290   33.1168 C   0  0  0  0  0  0  0  0  0  0  0  0
  108.8661   63.0463   44.3934 C   0  0  0  0  0  0  0  0  0  0  0  0
  107.9656   63.0613   45.4625 C   0  0  0  0  0  0  0  0  0  0  0  0
  106.5656   64.6710   44.3101 C   0  0  0  0  0  0  0  0  0  0  0  0
  111.0636   64.8805   33.6496 C   0  0  0  0  0  0  0  0  0  0  0  0
  110.2454   67.1762   32.9401 C   0  0  0  0  0  0  0  0  0  0  0  0
  108.6219   63.8523   43.2604 C   0  0  0  0  0  0  0  0  0  0  0  0
  107.4743   64.6508   43.2399 C   0  0  0  0  0  0  0  0  0  0  0  0
  106.8309   63.8638   45.4193 C   0  0  0  0  0  0  0  0  0  0  0  0
  110.7436   66.1834   33.9081 C   0  0  0  0  0  0  0  0  0  0  0  0
  111.4260   65.2591   35.8003 C   0  0  0  0  0  0  0  0  0  0  0  0
  108.8896   64.7852   41.2792 C   0  0  0  0  0  0  0  0  0  0  0  0
  110.5525   64.7158   39.3791 C   0  0  0  0  0  0  0  0  0  0  0  0
  104.5570   62.5770   46.3824 C   0  0  0  0  0  0  0  0  0  0  0  0
  111.8002   65.0645   37.2412 C   0  0  0  0  0  0  0  0  0  0  0  0
  109.4221   63.9400   42.1306 N   0  0  0  0  0  0  0  0  0  0  0  0
  111.4832   64.3328   34.8379 N   0  0  0  0  0  0  0  0  0  0  0  0
  110.9771   66.3900   35.2463 N   0  0  0  0  0  4  0  0  0  0  0  0
  109.3711   65.1483   40.0494 N   0  0  0  0  0  0  0  0  0  0  0  0
  110.6902   65.3260   38.1282 N   0  0  0  0  0  0  0  0  0  0  0  0
  111.3639   63.9079   39.8250 O   0  0  0  0  0  0  0  0  0  0  0  0
  106.4591   63.4609   47.9558 O   0  0  0  0  0  0  0  0  0  0  0  0
  104.9812   65.1196   46.7682 O   0  0  0  0  0  0  0  0  0  0  0  0
  107.4217   65.5239   41.7540 S   0  0  0  0  0  0  0  0  0  0  0  0
  105.7201   63.8652   46.7689 S   0  0  0  0  0  6  0  0  0  0  0  0
  108.9319   69.7978   30.3842 H   0  0  0  0  0  0  0  0  0  0  0  0
  108.4119   67.3783   30.0682 H   0  0  0  0  0  0  0  0  0  0  0  0
  110.2942   70.5359   32.3397 H   0  0  0  0  0  0  0  0  0  0  0  0
  109.2543   65.6968   31.7074 H   0  0  0  0  0  0  0  0  0  0  0  0
  111.1366   68.8544   33.9790 H   0  0  0  0  0  0  0  0  0  0  0  0
  109.7616   62.4089   44.4348 H   0  0  0  0  0  0  0  0  0  0  0  0
  108.1562   62.4331   46.3451 H   0  0  0  0  0  0  0  0  0  0  0  0
  105.6680   65.3059   44.2762 H   0  0  0  0  0  0  0  0  0  0  0  0
  110.9980   64.3689   32.6780 H   0  0  0  0  0  0  0  0  0  0  0  0
  104.1661   62.1440   47.3150 H   0  0  0  0  0  0  0  0  0  0  0  0
  103.7261   62.9969   45.7966 H   0  0  0  0  0  0  0  0  0  0  0  0
  105.0593   61.7931   45.7966 H   0  0  0  0  0  0  0  0  0  0  0  0
  112.1325   64.0258   37.3847 H   0  0  0  0  0  0  0  0  0  0  0  0
  112.6035   65.7760   37.4829 H   0  0  0  0  0  0  0  0  0  0  0  0
  111.7937   63.3593   34.9672 H   0  0  0  0  0  0  0  0  0  0  0  0
  110.8292   67.2787   35.7454 H   0  0  0  0  0  0  0  0  0  0  0  0
  108.7973   65.8319   39.5352 H   0  0  0  0  0  0  0  0  0  0  0  0
  109.9663   65.9931   37.8251 H   0  0  0  0  0  0  0  0  0  0  0  0
  1  2  2  0
  1  3  1  0
  2  4  1  0
  3  5  2  0
  4 10  2  0
  5 10  1  0
  6  7  2  0
  6 11  1  0
  7 13  1  0
  8 12  1  0
  8 13  2  0
  9 14  2  0
  9 21  1  0
 10 14  1  0
 11 12  2  0
 11 20  1  0
 12 28  1  0
 13 29  1  0
 14 22  1  0
 15 19  1  0
 15 21  1  0
 15 22  2  0
 16 20  2  0
 16 23  1  0
 16 28  1  0
 17 23  1  0
 17 24  1  0
 17 25  2  0
 18 29  1  0
 19 24  1  0
 26 29  2  0
 27 29  2  0
  1 30  1  0
  2 31  1  0
  3 32  1  0
  4 33  1  0
  5 34  1  0
  6 35  1  0
  7 36  1  0
  8 37  1  0
  9 38  1  0
 18 39  1  0
 18 40  1  0
 18 41  1  0
 19 42  1  0
 19 43  1  0
 21 44  1  0
 22 45  1  0
 23 46  1  0
 24 47  1  0
M  CHG  1  22   1
M  END
>  <s_m_entry_id>  (55) 
21937

>  <s_m_Source_Path>  (55) 
C:\Users\vinicius\Downloads\Ligands_Ecoli

>  <s_m_Source_File>  (55) 
Ligands_Ecoli_o.sdf

>  <i_m_Source_File_Index>  (55) 
71

>  <i_f3d_flags>  (55) 
0

>  <r_lp_tautomer_probability>  (55) 
1

>  <r_epik_Ionization_Penalty>  (55) 
  2.2445

>  <r_epik_State_Penalty>  (55) 
  1.5485

>  <i_epik_Tot_Q>  (55) 
1

>  <s_m_job_name>  (55) 
ligs_ecFabI_ligprep_2

>  <class_value>  (55) 
0

>  <FRED Chemgauss4 score>  (55) 
-14.701430

>  <Name>  (55) 
CHEMBL245045

>  <Set>  (55) 
training

>  <HBA count>  (55) 
5

>  <HBD count>  (55) 
3

>  <ExactMolWt>  (55) 
428.08455785609056

>  <NumRotatableBounds>  (55) 
6

>  <FractionCsp3>  (55) 
0.10526315789473684

>  <TPSA>  (55) 
118.08999999999997

>  <LogP_WildmanCrippen>  (55) 
2.8307

>  <General_Cluster>  (55) 
3

>  <Biological_Cluster>  (55) 
2

>  <Physicochemical_Cluster>  (55) 
7

>  <Structural_Cluster>  (55) 
4

$$$$
CHEMBL72122
     RDKit          3D

 40 43  0  0  0  0  0  0  0  0999 V2000
  107.9559   69.0052   31.7389 C   0  0  0  0  0  0  0  0  0  0  0  0
  108.5420   68.5490   30.5602 C   0  0  0  0  0  0  0  0  0  0  0  0
  108.2779   68.4242   32.9706 C   0  0  0  0  0  0  0  0  0  0  0  0
  111.5352   63.7702   38.7645 C   0  0  0  0  0  0  0  0  0  0  0  0
  112.2803   66.0576   38.5413 C   0  0  0  0  0  0  0  0  0  0  0  0
  109.4666   67.5010   30.5738 C   0  0  0  0  0  0  0  0  0  0  0  0
  111.2680   63.9891   40.1159 C   0  0  0  0  0  0  0  0  0  0  0  0
  112.0130   66.2765   39.8927 C   0  0  0  0  0  0  0  0  0  0  0  0
  109.2069   67.3651   33.0109 C   0  0  0  0  0  0  0  0  0  0  0  0
  112.0414   64.8045   37.9772 C   0  0  0  0  0  0  0  0  0  0  0  0
  109.7562   66.5614   34.0466 C   0  0  0  0  0  0  0  0  0  0  0  0
  109.7808   66.9282   31.8116 C   0  0  0  0  0  0  0  0  0  0  0  0
  111.5068   65.2422   40.6800 C   0  0  0  0  0  0  0  0  0  0  0  0
  110.6378   65.6752   33.4646 C   0  0  0  0  0  0  0  0  0  0  0  0
  112.3240   64.5736   36.5524 C   0  0  0  0  0  0  0  0  0  0  0  0
  109.5295   66.5727   35.5171 C   0  0  0  0  0  0  0  0  0  0  0  0
  111.4410   64.6360   34.1598 C   0  0  0  0  0  0  0  0  0  0  0  0
  109.9710   65.2296   36.1235 C   0  0  0  0  0  0  0  0  0  0  0  0
  111.4377   65.1649   31.1527 C   0  0  0  0  0  0  0  0  0  0  0  0
  110.6458   65.8985   32.1176 N   0  0  0  0  0  0  0  0  0  0  0  0
  111.3014   64.8161   35.6275 N   0  0  0  0  0  0  0  0  0  0  0  0
  111.2612   65.4435   41.9213 O   0  0  0  0  0  1  0  0  0  0  0  0
  113.4583   64.1845   36.2774 O   0  0  0  0  0  0  0  0  0  0  0  0
  107.2314   69.8320   31.7009 H   0  0  0  0  0  0  0  0  0  0  0  0
  108.2728   69.0211   29.6038 H   0  0  0  0  0  0  0  0  0  0  0  0
  107.8111   68.7901   33.8970 H   0  0  0  0  0  0  0  0  0  0  0  0
  111.3468   62.7820   38.3196 H   0  0  0  0  0  0  0  0  0  0  0  0
  112.6795   66.8732   37.9205 H   0  0  0  0  0  0  0  0  0  0  0  0
  109.9309   67.1392   29.6446 H   0  0  0  0  0  0  0  0  0  0  0  0
  110.8689   63.1735   40.7368 H   0  0  0  0  0  0  0  0  0  0  0  0
  112.2014   67.2647   40.3376 H   0  0  0  0  0  0  0  0  0  0  0  0
  110.1135   67.3874   35.9702 H   0  0  0  0  0  0  0  0  0  0  0  0
  108.4591   66.7272   35.7181 H   0  0  0  0  0  0  0  0  0  0  0  0
  111.0777   63.6376   33.8748 H   0  0  0  0  0  0  0  0  0  0  0  0
  112.4987   64.7315   33.8733 H   0  0  0  0  0  0  0  0  0  0  0  0
  110.0140   65.3297   37.2181 H   0  0  0  0  0  0  0  0  0  0  0  0
  109.2407   64.4627   35.8260 H   0  0  0  0  0  0  0  0  0  0  0  0
  112.1453   64.5094   31.6816 H   0  0  0  0  0  0  0  0  0  0  0  0
  110.7744   64.5551   30.5217 H   0  0  0  0  0  0  0  0  0  0  0  0
  111.9951   65.8728   30.5217 H   0  0  0  0  0  0  0  0  0  0  0  0
  1  2  2  0
  1  3  1  0
  2  6  1  0
  3  9  2  0
  4  7  2  0
  4 10  1  0
  5  8  1  0
  5 10  2  0
  6 12  2  0
  7 13  1  0
  8 13  2  0
  9 11  1  0
  9 12  1  0
 10 15  1  0
 11 14  2  0
 11 16  1  0
 12 20  1  0
 13 22  1  0
 14 17  1  0
 14 20  1  0
 15 21  1  0
 15 23  2  0
 16 18  1  0
 17 21  1  0
 18 21  1  0
 19 20  1  0
  1 24  1  0
  2 25  1  0
  3 26  1  0
  4 27  1  0
  5 28  1  0
  6 29  1  0
  7 30  1  0
  8 31  1  0
 16 32  1  0
 16 33  1  0
 17 34  1  0
 17 35  1  0
 18 36  1  0
 18 37  1  0
 19 38  1  0
 19 39  1  0
 19 40  1  0
M  CHG  1  22  -1
M  END
>  <s_m_entry_id>  (56) 
21809

>  <s_m_Source_Path>  (56) 
C:\Users\vinicius\Downloads\Ligands_Ecoli

>  <s_m_Source_File>  (56) 
Ligands_Ecoli_o.sdf

>  <i_m_Source_File_Index>  (56) 
3

>  <i_f3d_flags>  (56) 
0

>  <r_epik_Ionization_Penalty>  (56) 
  1.6798

>  <r_epik_State_Penalty>  (56) 
  1.7841

>  <i_epik_Tot_Q>  (56) 
-1

>  <s_m_job_name>  (56) 
ligs_ecFabI_ligprep_2

>  <class_value>  (56) 
0

>  <FRED Chemgauss4 score>  (56) 
-15.232545

>  <Name>  (56) 
CHEMBL72122

>  <Set>  (56) 
training

>  <HBA count>  (56) 
3

>  <HBD count>  (56) 
0

>  <ExactMolWt>  (56) 
305.1295513639104

>  <NumRotatableBounds>  (56) 
2

>  <FractionCsp3>  (56) 
0.21052631578947367

>  <TPSA>  (56) 
48.3

>  <LogP_WildmanCrippen>  (56) 
2.4504

>  <General_Cluster>  (56) 
2

>  <Biological_Cluster>  (56) 
2

>  <Physicochemical_Cluster>  (56) 
6

>  <Structural_Cluster>  (56) 
1

$$$$
CHEMBL2178321
     RDKit          3D

 27 28  0  0  0  0  0  0  0  0999 V2000
  111.8560   66.1656   38.7878 C   0  0  0  0  0  0  0  0  0  0  0  0
  110.7831   67.2402   32.9864 C   0  0  0  0  0  0  0  0  0  0  0  0
  111.6281   66.4621   33.7776 C   0  0  0  0  0  0  0  0  0  0  0  0
  111.9875   66.0952   37.4054 C   0  0  0  0  0  0  0  0  0  0  0  0
  111.5445   65.0192   39.5103 C   0  0  0  0  0  0  0  0  0  0  0  0
  108.8629   66.1365   33.9516 C   0  0  0  0  0  0  0  0  0  0  0  0
  109.4005   67.0774   33.0734 C   0  0  0  0  0  0  0  0  0  0  0  0
  111.0905   65.5211   34.6558 C   0  0  0  0  0  0  0  0  0  0  0  0
  109.7079   65.3583   34.7428 C   0  0  0  0  0  0  0  0  0  0  0  0
  111.7991   64.8642   36.7979 C   0  0  0  0  0  0  0  0  0  0  0  0
  111.3757   63.8365   38.8086 C   0  0  0  0  0  0  0  0  0  0  0  0
  108.5195   67.8908   32.2501 C   0  0  0  0  0  0  0  0  0  0  0  0
  108.7551   69.1428   31.8106 C   0  0  0  0  0  0  0  0  0  0  0  0
  111.4954   63.7290   37.4663 N   0  0  0  0  0  0  0  0  0  0  0  0
  109.1720   64.4417   35.5964 O   0  0  0  0  0  0  0  0  0  0  0  0
  111.9267   64.7675   35.4230 O   0  0  0  0  0  0  0  0  0  0  0  0
  111.0762   62.7221   39.4938 F   0  0  0  0  0  0  0  0  0  0  0  0
  107.3516   67.3203   31.8446 F   0  0  0  0  0  0  0  0  0  0  0  0
  107.8531   69.7959   31.0484 F   0  0  0  0  0  0  0  0  0  0  0  0
  109.8991   69.7703   32.1594 F   0  0  0  0  0  0  0  0  0  0  0  0
  111.9978   67.1245   39.3078 H   0  0  0  0  0  0  0  0  0  0  0  0
  111.2070   67.9822   32.2938 H   0  0  0  0  0  0  0  0  0  0  0  0
  112.7184   66.5905   33.7090 H   0  0  0  0  0  0  0  0  0  0  0  0
  112.2334   66.9886   36.8127 H   0  0  0  0  0  0  0  0  0  0  0  0
  111.4355   65.0503   40.6044 H   0  0  0  0  0  0  0  0  0  0  0  0
  107.7726   66.0082   34.0202 H   0  0  0  0  0  0  0  0  0  0  0  0
  109.7649   63.8855   36.1614 H   0  0  0  0  0  0  0  0  0  0  0  0
  1  4  2  0
  1  5  1  0
  2  3  2  0
  2  7  1  0
  3  8  1  0
  4 10  1  0
  5 11  2  0
  6  7  2  0
  6  9  1  0
  7 12  1  0
  8  9  2  0
  8 16  1  0
  9 15  1  0
 10 14  2  0
 10 16  1  0
 11 14  1  0
 11 17  1  0
 12 13  2  3
 12 18  1  0
 13 19  1  0
 13 20  1  0
  1 21  1  0
  2 22  1  0
  3 23  1  0
  4 24  1  0
  5 25  1  0
  6 26  1  0
 15 27  1  0
M  END
>  <s_m_entry_id>  (57) 
22033

>  <s_m_Source_Path>  (57) 
C:\Users\vinicius\Downloads\Ligands_Ecoli

>  <s_m_Source_File>  (57) 
Ligands_Ecoli_o.sdf

>  <i_m_Source_File_Index>  (57) 
119

>  <i_f3d_flags>  (57) 
0

>  <r_lp_tautomer_probability>  (57) 
1

>  <r_epik_Ionization_Penalty>  (57) 
  0.0113

>  <r_epik_State_Penalty>  (57) 
  0.0087

>  <i_epik_Tot_Q>  (57) 
0

>  <s_m_job_name>  (57) 
ligs_ecFabI_ligprep_2

>  <class_value>  (57) 
1

>  <FRED Chemgauss4 score>  (57) 
-17.065031

>  <Name>  (57) 
CHEMBL2178321

>  <Set>  (57) 
training

>  <HBA count>  (57) 
3

>  <HBD count>  (57) 
1

>  <ExactMolWt>  (57) 
285.04129134400023

>  <NumRotatableBounds>  (57) 
4

>  <FractionCsp3>  (57) 
0.0

>  <TPSA>  (57) 
42.35000000000001

>  <LogP_WildmanCrippen>  (57) 
4.2532000000000005

>  <General_Cluster>  (57) 
2

>  <Biological_Cluster>  (57) 
1

>  <Physicochemical_Cluster>  (57) 
6

>  <Structural_Cluster>  (57) 
1

$$$$
CHEMBL390894
     RDKit          3D

 44 47  0  0  0  0  0  0  0  0999 V2000
  104.5298   60.2692   45.2586 C   0  0  0  0  0  0  0  0  0  0  0  0
  110.6867   68.8829   32.0531 C   0  0  0  0  0  0  0  0  0  0  0  0
  103.6413   60.5162   44.2180 C   0  0  0  0  0  0  0  0  0  0  0  0
  110.9151   67.9410   33.0562 C   0  0  0  0  0  0  0  0  0  0  0  0
  109.3934   69.0926   31.5745 C   0  0  0  0  0  0  0  0  0  0  0  0
  105.5522   61.1741   45.5219 C   0  0  0  0  0  0  0  0  0  0  0  0
  108.5568   67.4182   33.1021 C   0  0  0  0  0  0  0  0  0  0  0  0
  103.8167   61.6733   43.4762 C   0  0  0  0  0  0  0  0  0  0  0  0
  107.9563   62.4401   42.6322 C   0  0  0  0  0  0  0  0  0  0  0  0
  109.3436   65.0985   34.8046 C   0  0  0  0  0  0  0  0  0  0  0  0
  109.8501   67.2086   33.5807 C   0  0  0  0  0  0  0  0  0  0  0  0
  108.3284   68.3602   32.0991 C   0  0  0  0  0  0  0  0  0  0  0  0
  110.0876   66.2388   34.6129 C   0  0  0  0  0  0  0  0  0  0  0  0
  105.6422   62.3016   44.7216 C   0  0  0  0  0  0  0  0  0  0  0  0
  107.8182   63.4923   43.5130 C   0  0  0  0  0  0  0  0  0  0  0  0
  110.9646   65.2622   36.2885 C   0  0  0  0  0  0  0  0  0  0  0  0
  109.1166   63.9431   41.5348 C   0  0  0  0  0  0  0  0  0  0  0  0
  110.4194   64.1165   39.3776 C   0  0  0  0  0  0  0  0  0  0  0  0
  111.8025   64.8807   37.4406 C   0  0  0  0  0  0  0  0  0  0  0  0
  104.7977   62.5756   43.7020 N   0  0  0  0  0  0  0  0  0  0  0  0
  108.7002   62.6968   41.4970 N   0  0  0  0  0  0  0  0  0  0  0  0
  111.0953   66.3347   35.5397 N   0  0  0  0  0  0  0  0  0  0  0  0
  109.9176   64.4830   35.8811 N   0  0  0  0  0  0  0  0  0  0  0  0
  109.9064   64.6200   40.5763 N   0  0  0  0  0  0  0  0  0  0  0  0
  111.1493   65.1050   38.7125 N   0  0  0  0  0  0  0  0  0  0  0  0
  110.2721   62.9785   38.9384 O   0  0  0  0  0  0  0  0  0  0  0  0
  108.6511   64.8633   42.9064 S   0  0  0  0  0  0  0  0  0  0  0  0
  106.9457   63.4965   45.0257 S   0  0  0  0  0  0  0  0  0  0  0  0
  106.5758   68.6450   31.4515 Br  0  0  0  0  0  0  0  0  0  0  0  0
  104.4243   59.3616   45.8711 H   0  0  0  0  0  0  0  0  0  0  0  0
  111.5266   69.4604   31.6394 H   0  0  0  0  0  0  0  0  0  0  0  0
  102.8248   59.8150   43.9908 H   0  0  0  0  0  0  0  0  0  0  0  0
  111.9350   67.7758   33.4336 H   0  0  0  0  0  0  0  0  0  0  0  0
  109.2133   69.8355   30.7835 H   0  0  0  0  0  0  0  0  0  0  0  0
  106.2670   61.0003   46.3397 H   0  0  0  0  0  0  0  0  0  0  0  0
  107.7170   66.8406   33.5157 H   0  0  0  0  0  0  0  0  0  0  0  0
  103.1144   61.8698   42.6527 H   0  0  0  0  0  0  0  0  0  0  0  0
  107.5018   61.4565   42.8221 H   0  0  0  0  0  0  0  0  0  0  0  0
  108.4768   64.7568   34.2199 H   0  0  0  0  0  0  0  0  0  0  0  0
  112.0489   63.8119   37.3565 H   0  0  0  0  0  0  0  0  0  0  0  0
  112.7029   65.5122   37.4167 H   0  0  0  0  0  0  0  0  0  0  0  0
  109.6167   63.5950   36.3074 H   0  0  0  0  0  0  0  0  0  0  0  0
  110.1306   65.6029   40.7872 H   0  0  0  0  0  0  0  0  0  0  0  0
  111.2260   66.0356   39.1471 H   0  0  0  0  0  0  0  0  0  0  0  0
  1  3  2  0
  1  6  1  0
  2  4  2  0
  2  5  1  0
  3  8  1  0
  4 11  1  0
  5 12  2  0
  6 14  2  0
  7 11  2  0
  7 12  1  0
  8 20  2  0
  9 15  2  0
  9 21  1  0
 10 13  2  0
 10 23  1  0
 11 13  1  0
 12 29  1  0
 13 22  1  0
 14 20  1  0
 14 28  1  0
 15 27  1  0
 15 28  1  0
 16 19  1  0
 16 22  2  0
 16 23  1  0
 17 21  2  0
 17 24  1  0
 17 27  1  0
 18 24  1  0
 18 25  1  0
 18 26  2  0
 19 25  1  0
  1 30  1  0
  2 31  1  0
  3 32  1  0
  4 33  1  0
  5 34  1  0
  6 35  1  0
  7 36  1  0
  8 37  1  0
  9 38  1  0
 10 39  1  0
 19 40  1  0
 19 41  1  0
 23 42  1  0
 24 43  1  0
 25 44  1  0
M  END
>  <s_m_entry_id>  (58) 
21896

>  <s_m_Source_Path>  (58) 
C:\Users\vinicius\Downloads\Ligands_Ecoli

>  <s_m_Source_File>  (58) 
Ligands_Ecoli_o.sdf

>  <i_m_Source_File_Index>  (58) 
53

>  <i_f3d_flags>  (58) 
0

>  <r_lp_tautomer_probability>  (58) 
0.49950024419958

>  <r_epik_Ionization_Penalty>  (58) 
  0.0436

>  <r_epik_State_Penalty>  (58) 
  0.3593

>  <i_epik_Tot_Q>  (58) 
0

>  <s_m_job_name>  (58) 
ligs_ecFabI_ligprep_2

>  <class_value>  (58) 
0

>  <FRED Chemgauss4 score>  (58) 
-13.888498

>  <Name>  (58) 
CHEMBL390894

>  <Set>  (58) 
training

>  <HBA count>  (58) 
6

>  <HBD count>  (58) 
3

>  <ExactMolWt>  (58) 
485.9932132000006

>  <NumRotatableBounds>  (58) 
6

>  <FractionCsp3>  (58) 
0.05263157894736842

>  <TPSA>  (58) 
95.59

>  <LogP_WildmanCrippen>  (58) 
5.1636000000000015

>  <General_Cluster>  (58) 
3

>  <Biological_Cluster>  (58) 
2

>  <Physicochemical_Cluster>  (58) 
7

>  <Structural_Cluster>  (58) 
4

$$$$
CHEMBL237836
     RDKit          3D

 38 41  0  0  0  0  0  0  0  0999 V2000
  108.7157   65.7862   44.0527 C   0  0  0  0  0  0  0  0  0  0  0  0
  108.2165   68.9766   31.9444 C   0  0  0  0  0  0  0  0  0  0  0  0
  109.3480   69.8014   32.1205 C   0  0  0  0  0  0  0  0  0  0  0  0
  109.0264   67.0878   42.0140 C   0  0  0  0  0  0  0  0  0  0  0  0
  109.3957   67.1879   40.6695 C   0  0  0  0  0  0  0  0  0  0  0  0
  108.2695   67.5919   32.1591 C   0  0  0  0  0  0  0  0  0  0  0  0
  110.5877   69.2818   32.5199 C   0  0  0  0  0  0  0  0  0  0  0  0
  109.5385   64.7178   42.0176 C   0  0  0  0  0  0  0  0  0  0  0  0
  109.0977   65.8678   42.6774 C   0  0  0  0  0  0  0  0  0  0  0  0
  109.8447   66.0413   39.9791 C   0  0  0  0  0  0  0  0  0  0  0  0
  109.5046   67.0918   32.5546 C   0  0  0  0  0  0  0  0  0  0  0  0
  110.6245   67.9082   32.7289 C   0  0  0  0  0  0  0  0  0  0  0  0
  109.9079   64.8257   40.6672 C   0  0  0  0  0  0  0  0  0  0  0  0
  111.2099   65.8125   33.1867 C   0  0  0  0  0  0  0  0  0  0  0  0
  110.5965   64.7625   38.3462 C   0  0  0  0  0  0  0  0  0  0  0  0
  111.2495   65.0058   35.9182 C   0  0  0  0  0  0  0  0  0  0  0  0
  112.0147   64.6285   33.5685 C   0  0  0  0  0  0  0  0  0  0  0  0
  108.4056   65.7200   45.1691 N   0  0  0  0  0  0  0  0  0  0  0  0
  110.2424   65.9890   38.6511 N   0  0  0  0  0  0  0  0  0  0  0  0
  109.9163   65.8082   32.8490 N   0  0  0  0  0  0  0  0  0  0  0  0
  111.6512   67.0729   33.1186 N   0  0  0  0  0  4  0  0  0  0  0  0
  111.0625   64.2830   37.0998 N   0  0  0  0  0  0  0  0  0  0  0  0
  111.7259   64.1659   34.9063 N   0  0  0  0  0  0  0  0  0  0  0  0
  111.0385   66.2047   35.7517 O   0  0  0  0  0  0  0  0  0  0  0  0
  110.4841   63.6021   39.5979 S   0  0  0  0  0  0  0  0  0  0  0  0
  107.2662   69.4328   31.6299 H   0  0  0  0  0  0  0  0  0  0  0  0
  109.2549   70.8824   31.9393 H   0  0  0  0  0  0  0  0  0  0  0  0
  108.6765   67.9814   42.5516 H   0  0  0  0  0  0  0  0  0  0  0  0
  109.3367   68.1565   40.1514 H   0  0  0  0  0  0  0  0  0  0  0  0
  107.3911   66.9438   32.0234 H   0  0  0  0  0  0  0  0  0  0  0  0
  111.4731   69.9196   32.6587 H   0  0  0  0  0  0  0  0  0  0  0  0
  109.5947   63.7528   42.5425 H   0  0  0  0  0  0  0  0  0  0  0  0
  111.8004   63.8142   32.8607 H   0  0  0  0  0  0  0  0  0  0  0  0
  113.0740   64.9237   33.5405 H   0  0  0  0  0  0  0  0  0  0  0  0
  109.3166   64.9716   32.8138 H   0  0  0  0  0  0  0  0  0  0  0  0
  112.6138   67.3751   33.3261 H   0  0  0  0  0  0  0  0  0  0  0  0
  111.2918   63.2797   37.0578 H   0  0  0  0  0  0  0  0  0  0  0  0
  111.8779   63.1710   35.1252 H   0  0  0  0  0  0  0  0  0  0  0  0
  1  9  1  0
  1 18  3  0
  2  3  2  0
  2  6  1  0
  3  7  1  0
  4  5  2  0
  4  9  1  0
  5 10  1  0
  6 11  2  0
  7 12  2  0
  8  9  2  0
  8 13  1  0
 10 13  2  0
 10 19  1  0
 11 12  1  0
 11 20  1  0
 12 21  1  0
 13 25  1  0
 14 17  1  0
 14 20  1  0
 14 21  2  0
 15 19  2  0
 15 22  1  0
 15 25  1  0
 16 22  1  0
 16 23  1  0
 16 24  2  0
 17 23  1  0
  2 26  1  0
  3 27  1  0
  4 28  1  0
  5 29  1  0
  6 30  1  0
  7 31  1  0
  8 32  1  0
 17 33  1  0
 17 34  1  0
 20 35  1  0
 21 36  1  0
 22 37  1  0
 23 38  1  0
M  CHG  1  21   1
M  END
>  <s_m_entry_id>  (59) 
21921

>  <s_m_Source_Path>  (59) 
C:\Users\vinicius\Downloads\Ligands_Ecoli

>  <s_m_Source_File>  (59) 
Ligands_Ecoli_o.sdf

>  <i_m_Source_File_Index>  (59) 
63

>  <i_f3d_flags>  (59) 
0

>  <r_epik_Ionization_Penalty>  (59) 
  2.2419

>  <r_epik_State_Penalty>  (59) 
  2.3852

>  <i_epik_Tot_Q>  (59) 
1

>  <s_m_job_name>  (59) 
ligs_ecFabI_ligprep_2

>  <class_value>  (59) 
0

>  <FRED Chemgauss4 score>  (59) 
-14.478910

>  <Name>  (59) 
CHEMBL237836

>  <Set>  (59) 
training

>  <HBA count>  (59) 
4

>  <HBD count>  (59) 
3

>  <ExactMolWt>  (59) 
349.0866064560904

>  <NumRotatableBounds>  (59) 
3

>  <FractionCsp3>  (59) 
0.058823529411764705

>  <TPSA>  (59) 
107.74000000000001

>  <LogP_WildmanCrippen>  (59) 
2.7850800000000002

>  <General_Cluster>  (59) 
3

>  <Biological_Cluster>  (59) 
2

>  <Physicochemical_Cluster>  (59) 
9

>  <Structural_Cluster>  (59) 
4

$$$$
CHEMBL237449
     RDKit          3D

 45 48  0  0  0  0  0  0  0  0999 V2000
  108.5188   68.0262   32.2975 C   0  0  0  0  0  0  0  0  0  0  0  0
  109.6658   68.5980   31.7582 C   0  0  0  0  0  0  0  0  0  0  0  0
  107.5830   65.8633   44.5384 C   0  0  0  0  0  0  0  0  0  0  0  0
  106.7938   65.5806   45.6570 C   0  0  0  0  0  0  0  0  0  0  0  0
  108.6287   67.1094   33.3371 C   0  0  0  0  0  0  0  0  0  0  0  0
  109.3330   64.7670   35.2238 C   0  0  0  0  0  0  0  0  0  0  0  0
  109.8641   64.0824   36.3549 C   0  0  0  0  0  0  0  0  0  0  0  0
  106.8824   63.2076   45.1672 C   0  0  0  0  0  0  0  0  0  0  0  0
  110.8890   68.2227   32.2898 C   0  0  0  0  0  0  0  0  0  0  0  0
  108.0342   64.8091   43.7149 C   0  0  0  0  0  0  0  0  0  0  0  0
  107.6750   63.4989   44.0453 C   0  0  0  0  0  0  0  0  0  0  0  0
  106.4492   64.2693   45.9655 C   0  0  0  0  0  0  0  0  0  0  0  0
  109.8984   66.8006   33.7979 C   0  0  0  0  0  0  0  0  0  0  0  0
  110.0974   65.8581   34.8734 C   0  0  0  0  0  0  0  0  0  0  0  0
  111.0145   64.6763   36.8258 C   0  0  0  0  0  0  0  0  0  0  0  0
  109.0465   63.7506   42.0652 C   0  0  0  0  0  0  0  0  0  0  0  0
  110.4694   64.3235   40.0582 C   0  0  0  0  0  0  0  0  0  0  0  0
  106.6322   63.7132   48.6878 C   0  0  0  0  0  0  0  0  0  0  0  0
  111.8702   64.2644   37.9887 C   0  0  0  0  0  0  0  0  0  0  0  0
  111.0354   67.3356   33.2993 N   0  0  0  0  0  0  0  0  0  0  0  0
  108.8198   64.9370   42.5787 N   0  0  0  0  0  0  0  0  0  0  0  0
  109.7762   63.4495   40.9458 N   0  0  0  0  0  0  0  0  0  0  0  0
  111.0986   63.6198   39.0263 N   0  0  0  0  0  0  0  0  0  0  0  0
  110.5218   65.5463   40.1664 O   0  0  0  0  0  0  0  0  0  0  0  0
  104.6868   65.1393   47.6600 O   0  0  0  0  0  0  0  0  0  0  0  0
  104.7812   62.6684   47.1791 O   0  0  0  0  0  0  0  0  0  0  0  0
  108.3530   62.4189   42.8847 S   0  0  0  0  0  0  0  0  0  0  0  0
  111.4494   66.0536   35.9060 S   0  0  0  0  0  0  0  0  0  0  0  0
  105.4610   63.9417   47.3696 S   0  0  0  0  0  6  0  0  0  0  0  0
  107.5285   68.2980   31.9033 H   0  0  0  0  0  0  0  0  0  0  0  0
  109.6040   69.3254   30.9354 H   0  0  0  0  0  0  0  0  0  0  0  0
  107.8515   66.9032   44.3007 H   0  0  0  0  0  0  0  0  0  0  0  0
  106.4425   66.4023   46.2985 H   0  0  0  0  0  0  0  0  0  0  0  0
  107.7357   66.6439   33.7798 H   0  0  0  0  0  0  0  0  0  0  0  0
  108.4198   64.4603   34.6927 H   0  0  0  0  0  0  0  0  0  0  0  0
  109.4091   63.1852   36.7998 H   0  0  0  0  0  0  0  0  0  0  0  0
  106.6096   62.1703   45.4113 H   0  0  0  0  0  0  0  0  0  0  0  0
  111.7971   68.6745   31.8641 H   0  0  0  0  0  0  0  0  0  0  0  0
  106.1191   63.8133   49.6556 H   0  0  0  0  0  0  0  0  0  0  0  0
  107.0791   62.7109   48.6116 H   0  0  0  0  0  0  0  0  0  0  0  0
  107.4230   64.4740   48.6116 H   0  0  0  0  0  0  0  0  0  0  0  0
  112.6408   63.5649   37.6325 H   0  0  0  0  0  0  0  0  0  0  0  0
  112.3232   65.1714   38.4156 H   0  0  0  0  0  0  0  0  0  0  0  0
  109.8321   62.4480   40.7118 H   0  0  0  0  0  0  0  0  0  0  0  0
  111.0077   62.5940   39.0050 H   0  0  0  0  0  0  0  0  0  0  0  0
  1  2  2  0
  1  5  1  0
  2  9  1  0
  3  4  2  0
  3 10  1  0
  4 12  1  0
  5 13  2  0
  6  7  1  0
  6 14  2  0
  7 15  2  0
  8 11  1  0
  8 12  2  0
  9 20  2  0
 10 11  2  0
 10 21  1  0
 11 27  1  0
 12 29  1  0
 13 14  1  0
 13 20  1  0
 14 28  1  0
 15 19  1  0
 15 28  1  0
 16 21  2  0
 16 22  1  0
 16 27  1  0
 17 22  1  0
 17 23  1  0
 17 24  2  0
 18 29  1  0
 19 23  1  0
 25 29  2  0
 26 29  2  0
  1 30  1  0
  2 31  1  0
  3 32  1  0
  4 33  1  0
  5 34  1  0
  6 35  1  0
  7 36  1  0
  8 37  1  0
  9 38  1  0
 18 39  1  0
 18 40  1  0
 18 41  1  0
 19 42  1  0
 19 43  1  0
 22 44  1  0
 23 45  1  0
M  END
>  <s_m_entry_id>  (60) 
21900

>  <s_m_Source_Path>  (60) 
C:\Users\vinicius\Downloads\Ligands_Ecoli

>  <s_m_Source_File>  (60) 
Ligands_Ecoli_o.sdf

>  <i_m_Source_File_Index>  (60) 
55

>  <i_f3d_flags>  (60) 
0

>  <r_lp_tautomer_probability>  (60) 
1

>  <r_epik_Ionization_Penalty>  (60) 
  0.0023

>  <r_epik_State_Penalty>  (60) 
  0.0000

>  <i_epik_Tot_Q>  (60) 
0

>  <s_m_job_name>  (60) 
ligs_ecFabI_ligprep_2

>  <class_value>  (60) 
0

>  <FRED Chemgauss4 score>  (60) 
-13.111412

>  <Name>  (60) 
CHEMBL237449

>  <Set>  (60) 
training

>  <HBA count>  (60) 
7

>  <HBD count>  (60) 
2

>  <ExactMolWt>  (60) 
444.0384533720005

>  <NumRotatableBounds>  (60) 
6

>  <FractionCsp3>  (60) 
0.10526315789473684

>  <TPSA>  (60) 
101.04999999999998

>  <LogP_WildmanCrippen>  (60) 
4.145000000000002

>  <General_Cluster>  (60) 
3

>  <Biological_Cluster>  (60) 
2

>  <Physicochemical_Cluster>  (60) 
7

>  <Structural_Cluster>  (60) 
4

$$$$
CHEMBL2178314
     RDKit          3D

 35 36  0  0  0  0  0  0  0  0999 V2000
  112.3333   65.5554   39.6259 C   0  0  0  0  0  0  0  0  0  0  0  0
  112.1609   66.3169   38.4701 C   0  0  0  0  0  0  0  0  0  0  0  0
  108.8875   66.4558   34.0442 C   0  0  0  0  0  0  0  0  0  0  0  0
  111.8138   64.2626   39.6933 C   0  0  0  0  0  0  0  0  0  0  0  0
  111.4690   65.7856   37.3816 C   0  0  0  0  0  0  0  0  0  0  0  0
  109.0316   65.6304   35.1593 C   0  0  0  0  0  0  0  0  0  0  0  0
  110.9536   65.5919   33.1376 C   0  0  0  0  0  0  0  0  0  0  0  0
  109.8484   66.4366   33.0333 C   0  0  0  0  0  0  0  0  0  0  0  0
  111.1219   63.7313   38.6049 C   0  0  0  0  0  0  0  0  0  0  0  0
  110.9495   64.4928   37.4490 C   0  0  0  0  0  0  0  0  0  0  0  0
  110.1367   64.7858   35.2637 C   0  0  0  0  0  0  0  0  0  0  0  0
  111.0977   64.7665   34.2528 C   0  0  0  0  0  0  0  0  0  0  0  0
  110.3506   68.6809   32.0348 C   0  0  0  0  0  0  0  0  0  0  0  0
  109.4245   62.0096   37.9883 C   0  0  0  0  0  0  0  0  0  0  0  0
  109.6931   67.3171   31.8397 C   0  0  0  0  0  0  0  0  0  0  0  0
  110.6016   62.4215   38.6869 N   0  0  0  0  0  0  0  0  0  0  0  0
  112.1817   63.9465   34.3439 O   0  0  0  0  0  0  0  0  0  0  0  0
  110.2659   63.9846   36.3580 O   0  0  0  0  0  0  0  0  0  0  0  0
  112.8789   65.9743   40.4843 H   0  0  0  0  0  0  0  0  0  0  0  0
  112.5705   67.3364   38.4169 H   0  0  0  0  0  0  0  0  0  0  0  0
  108.0160   67.1219   33.9620 H   0  0  0  0  0  0  0  0  0  0  0  0
  111.9498   63.6621   40.6048 H   0  0  0  0  0  0  0  0  0  0  0  0
  111.3331   66.3861   36.4701 H   0  0  0  0  0  0  0  0  0  0  0  0
  108.2737   65.6455   35.9564 H   0  0  0  0  0  0  0  0  0  0  0  0
  111.7114   65.5767   32.3405 H   0  0  0  0  0  0  0  0  0  0  0  0
  110.4510   68.8891   33.1102 H   0  0  0  0  0  0  0  0  0  0  0  0
  111.3463   68.6781   31.5674 H   0  0  0  0  0  0  0  0  0  0  0  0
  109.7283   69.4582   31.5674 H   0  0  0  0  0  0  0  0  0  0  0  0
  108.6442   61.7365   38.7139 H   0  0  0  0  0  0  0  0  0  0  0  0
  109.0651   62.8354   37.3567 H   0  0  0  0  0  0  0  0  0  0  0  0
  109.6584   61.1399   37.3567 H   0  0  0  0  0  0  0  0  0  0  0  0
  110.1556   66.8224   30.9729 H   0  0  0  0  0  0  0  0  0  0  0  0
  108.6171   67.4824   31.6818 H   0  0  0  0  0  0  0  0  0  0  0  0
  111.0914   61.7328   39.2757 H   0  0  0  0  0  0  0  0  0  0  0  0
  112.2919   63.3574   35.1319 H   0  0  0  0  0  0  0  0  0  0  0  0
  1  2  2  0
  1  4  1  0
  2  5  1  0
  3  6  2  0
  3  8  1  0
  4  9  2  0
  5 10  2  0
  6 11  1  0
  7  8  2  0
  7 12  1  0
  8 15  1  0
  9 10  1  0
  9 16  1  0
 10 18  1  0
 11 12  2  0
 11 18  1  0
 12 17  1  0
 13 15  1  0
 14 16  1  0
  1 19  1  0
  2 20  1  0
  3 21  1  0
  4 22  1  0
  5 23  1  0
  6 24  1  0
  7 25  1  0
 13 26  1  0
 13 27  1  0
 13 28  1  0
 14 29  1  0
 14 30  1  0
 14 31  1  0
 15 32  1  0
 15 33  1  0
 16 34  1  0
 17 35  1  0
M  END
>  <s_m_entry_id>  (61) 
22025

>  <s_m_Source_Path>  (61) 
C:\Users\vinicius\Downloads\Ligands_Ecoli

>  <s_m_Source_File>  (61) 
Ligands_Ecoli_o.sdf

>  <i_m_Source_File_Index>  (61) 
114

>  <i_f3d_flags>  (61) 
0

>  <r_lp_tautomer_probability>  (61) 
1

>  <r_epik_Ionization_Penalty>  (61) 
  0.0069

>  <r_epik_State_Penalty>  (61) 
  0.0000

>  <i_epik_Tot_Q>  (61) 
0

>  <s_m_job_name>  (61) 
ligs_ecFabI_ligprep_2

>  <class_value>  (61) 
0

>  <FRED Chemgauss4 score>  (61) 
-15.895129

>  <Name>  (61) 
CHEMBL2178314

>  <Set>  (61) 
training

>  <HBA count>  (61) 
3

>  <HBD count>  (61) 
2

>  <ExactMolWt>  (61) 
243.125928784

>  <NumRotatableBounds>  (61) 
7

>  <FractionCsp3>  (61) 
0.2

>  <TPSA>  (61) 
41.489999999999995

>  <LogP_WildmanCrippen>  (61) 
3.788600000000002

>  <General_Cluster>  (61) 
1

>  <Biological_Cluster>  (61) 
2

>  <Physicochemical_Cluster>  (61) 
3

>  <Structural_Cluster>  (61) 
3

$$$$
CHEMBL62515
     RDKit          3D

 30 32  0  0  0  0  0  0  0  0999 V2000
  108.4940   67.8298   31.7892 C   0  0  0  0  0  0  0  0  0  0  0  0
  110.3590   69.2924   32.2578 C   0  0  0  0  0  0  0  0  0  0  0  0
  109.2027   66.7545   32.3250 C   0  0  0  0  0  0  0  0  0  0  0  0
  111.0677   68.2171   32.7937 C   0  0  0  0  0  0  0  0  0  0  0  0
  110.4234   64.8238   39.3785 C   0  0  0  0  0  0  0  0  0  0  0  0
  111.0011   65.1014   40.5978 C   0  0  0  0  0  0  0  0  0  0  0  0
  112.2818   66.0595   38.7292 C   0  0  0  0  0  0  0  0  0  0  0  0
  111.1653   65.3786   38.2959 C   0  0  0  0  0  0  0  0  0  0  0  0
  109.0722   69.0988   31.7556 C   0  0  0  0  0  0  0  0  0  0  0  0
  110.4895   66.9481   32.8272 C   0  0  0  0  0  0  0  0  0  0  0  0
  110.8093   65.2591   36.8668 C   0  0  0  0  0  0  0  0  0  0  0  0
  110.8161   65.4186   34.8043 C   0  0  0  0  0  0  0  0  0  0  0  0
  108.3151   70.2491   31.1833 C   0  0  0  0  0  0  0  0  0  0  0  0
  111.2460   65.7982   33.4015 C   0  0  0  0  0  0  0  0  0  0  0  0
  111.5268   65.7891   35.9087 N   0  0  0  0  0  0  0  0  0  0  0  0
  109.7146   64.6987   35.0368 N   0  0  0  0  0  0  0  0  0  0  0  0
  109.7090   64.5900   36.4331 O   0  0  0  0  0  0  0  0  0  0  0  0
  112.4321   66.0277   40.4346 S   0  0  0  0  0  0  0  0  0  0  0  0
  107.4792   67.6771   31.3932 H   0  0  0  0  0  0  0  0  0  0  0  0
  110.8150   70.2931   32.2312 H   0  0  0  0  0  0  0  0  0  0  0  0
  108.7468   65.7538   32.3515 H   0  0  0  0  0  0  0  0  0  0  0  0
  112.0825   68.3698   33.1899 H   0  0  0  0  0  0  0  0  0  0  0  0
  109.4980   64.2421   39.2551 H   0  0  0  0  0  0  0  0  0  0  0  0
  110.5915   64.7674   41.5625 H   0  0  0  0  0  0  0  0  0  0  0  0
  112.9929   66.5641   38.0586 H   0  0  0  0  0  0  0  0  0  0  0  0
  107.9101   70.8644   32.0003 H   0  0  0  0  0  0  0  0  0  0  0  0
  108.9886   70.8595   30.5637 H   0  0  0  0  0  0  0  0  0  0  0  0
  107.4881   69.8719   30.5637 H   0  0  0  0  0  0  0  0  0  0  0  0
  111.1002   64.9263   32.7469 H   0  0  0  0  0  0  0  0  0  0  0  0
  112.2995   66.1086   33.4637 H   0  0  0  0  0  0  0  0  0  0  0  0
  1  3  2  0
  1  9  1  0
  2  4  1  0
  2  9  2  0
  3 10  1  0
  4 10  2  0
  5  6  2  0
  5  8  1  0
  6 18  1  0
  7  8  2  0
  7 18  1  0
  8 11  1  0
  9 13  1  0
 10 14  1  0
 11 15  2  0
 11 17  1  0
 12 14  1  0
 12 15  1  0
 12 16  2  0
 16 17  1  0
  1 19  1  0
  2 20  1  0
  3 21  1  0
  4 22  1  0
  5 23  1  0
  6 24  1  0
  7 25  1  0
 13 26  1  0
 13 27  1  0
 13 28  1  0
 14 29  1  0
 14 30  1  0
M  END
>  <s_m_entry_id>  (62) 
21885

>  <s_m_Source_Path>  (62) 
C:\Users\vinicius\Downloads\Ligands_Ecoli

>  <s_m_Source_File>  (62) 
Ligands_Ecoli_o.sdf

>  <i_m_Source_File_Index>  (62) 
48

>  <i_f3d_flags>  (62) 
0

>  <r_lp_tautomer_probability>  (62) 
1

>  <r_epik_Ionization_Penalty>  (62) 
  0.0000

>  <r_epik_State_Penalty>  (62) 
  0.0000

>  <i_epik_Tot_Q>  (62) 
0

>  <s_m_job_name>  (62) 
ligs_ecFabI_ligprep_2

>  <class_value>  (62) 
0

>  <FRED Chemgauss4 score>  (62) 
-14.147866

>  <Name>  (62) 
CHEMBL62515

>  <Set>  (62) 
training

>  <HBA count>  (62) 
4

>  <HBD count>  (62) 
0

>  <ExactMolWt>  (62) 
256.067034004

>  <NumRotatableBounds>  (62) 
4

>  <FractionCsp3>  (62) 
0.14285714285714285

>  <TPSA>  (62) 
38.92

>  <LogP_WildmanCrippen>  (62) 
3.697320000000003

>  <General_Cluster>  (62) 
2

>  <Biological_Cluster>  (62) 
2

>  <Physicochemical_Cluster>  (62) 
6

>  <Structural_Cluster>  (62) 
1

$$$$
CHEMBL73455
     RDKit          3D

 58 62  0  0  0  0  0  0  0  0999 V2000
  108.7936   69.2278   42.9680 C   0  0  0  0  0  0  0  0  0  0  0  0
  108.7113   68.3114   44.0142 C   0  0  0  0  0  0  0  0  0  0  0  0
  109.3708   68.8686   41.7448 C   0  0  0  0  0  0  0  0  0  0  0  0
  108.5166   63.3448   44.3771 C   0  0  0  0  0  0  0  0  0  0  0  0
  108.4876   63.1007   41.9736 C   0  0  0  0  0  0  0  0  0  0  0  0
  109.2011   67.0101   43.8726 C   0  0  0  0  0  0  0  0  0  0  0  0
  107.2944   62.6776   44.4596 C   0  0  0  0  0  0  0  0  0  0  0  0
  107.2654   62.4335   42.0561 C   0  0  0  0  0  0  0  0  0  0  0  0
  109.7449   65.2388   36.3133 C   0  0  0  0  0  0  0  0  0  0  0  0
  111.8307   64.6443   35.2490 C   0  0  0  0  0  0  0  0  0  0  0  0
  109.8730   67.5624   41.5772 C   0  0  0  0  0  0  0  0  0  0  0  0
  111.0174   64.6719   36.3819 C   0  0  0  0  0  0  0  0  0  0  0  0
  110.5047   66.8680   40.5099 C   0  0  0  0  0  0  0  0  0  0  0  0
  109.1132   63.5564   43.1341 C   0  0  0  0  0  0  0  0  0  0  0  0
  109.2854   65.7780   35.1117 C   0  0  0  0  0  0  0  0  0  0  0  0
  111.3713   65.1836   34.0473 C   0  0  0  0  0  0  0  0  0  0  0  0
  109.7759   66.6627   42.6446 C   0  0  0  0  0  0  0  0  0  0  0  0
  106.6689   62.2220   43.2991 C   0  0  0  0  0  0  0  0  0  0  0  0
  110.0986   65.7505   33.9787 C   0  0  0  0  0  0  0  0  0  0  0  0
  110.7673   65.5857   40.9434 C   0  0  0  0  0  0  0  0  0  0  0  0
  111.5019   64.1032   37.6489 C   0  0  0  0  0  0  0  0  0  0  0  0
  110.8611   67.3067   39.1335 C   0  0  0  0  0  0  0  0  0  0  0  0
  111.4267   64.5034   40.1673 C   0  0  0  0  0  0  0  0  0  0  0  0
  111.9352   66.3729   38.5498 C   0  0  0  0  0  0  0  0  0  0  0  0
  107.9201   66.3805   35.0580 C   0  0  0  0  0  0  0  0  0  0  0  0
  112.2565   65.1447   32.8453 C   0  0  0  0  0  0  0  0  0  0  0  0
  110.4320   64.2756   43.0450 C   0  0  0  0  0  0  0  0  0  0  0  0
  110.3292   65.4688   42.2314 N   0  0  0  0  0  0  0  0  0  0  0  0
  111.5956   64.9491   38.7604 N   0  0  0  0  0  0  0  0  0  0  0  0
  111.7863   62.9063   37.6361 O   0  0  0  0  0  0  0  0  0  0  0  0
  105.4769   61.5698   43.3799 O   0  0  0  0  0  0  0  0  0  0  0  0
  109.6494   66.2778   32.8037 O   0  0  0  0  0  0  0  0  0  0  0  0
  108.4002   70.2458   43.1051 H   0  0  0  0  0  0  0  0  0  0  0  0
  108.2536   68.6169   44.9667 H   0  0  0  0  0  0  0  0  0  0  0  0
  109.4319   69.5976   40.9233 H   0  0  0  0  0  0  0  0  0  0  0  0
  109.0099   63.7041   45.2923 H   0  0  0  0  0  0  0  0  0  0  0  0
  108.9581   63.2675   40.9934 H   0  0  0  0  0  0  0  0  0  0  0  0
  109.1371   66.2847   44.6970 H   0  0  0  0  0  0  0  0  0  0  0  0
  106.8239   62.5108   45.4398 H   0  0  0  0  0  0  0  0  0  0  0  0
  106.7720   62.0742   41.1410 H   0  0  0  0  0  0  0  0  0  0  0  0
  109.1037   65.2607   37.2068 H   0  0  0  0  0  0  0  0  0  0  0  0
  112.8343   64.1973   35.3032 H   0  0  0  0  0  0  0  0  0  0  0  0
  109.9647   67.2750   38.4967 H   0  0  0  0  0  0  0  0  0  0  0  0
  111.2541   68.3335   39.1703 H   0  0  0  0  0  0  0  0  0  0  0  0
  112.4116   64.2836   40.6050 H   0  0  0  0  0  0  0  0  0  0  0  0
  110.8069   63.5951   40.1969 H   0  0  0  0  0  0  0  0  0  0  0  0
  112.0234   66.5623   37.4698 H   0  0  0  0  0  0  0  0  0  0  0  0
  112.8850   66.5786   39.0651 H   0  0  0  0  0  0  0  0  0  0  0  0
  107.5507   66.5435   36.0812 H   0  0  0  0  0  0  0  0  0  0  0  0
  107.9645   67.3426   34.5266 H   0  0  0  0  0  0  0  0  0  0  0  0
  107.2393   65.6992   34.5266 H   0  0  0  0  0  0  0  0  0  0  0  0
  113.3078   65.0985   33.1655 H   0  0  0  0  0  0  0  0  0  0  0  0
  112.0174   64.2562   32.2425 H   0  0  0  0  0  0  0  0  0  0  0  0
  112.0963   66.0508   32.2425 H   0  0  0  0  0  0  0  0  0  0  0  0
  110.7539   64.5597   44.0578 H   0  0  0  0  0  0  0  0  0  0  0  0
  111.1638   63.6001   42.5779 H   0  0  0  0  0  0  0  0  0  0  0  0
  105.0328   61.2464   42.5563 H   0  0  0  0  0  0  0  0  0  0  0  0
  110.2266   66.2582   31.9996 H   0  0  0  0  0  0  0  0  0  0  0  0
  1  2  2  0
  1  3  1  0
  2  6  1  0
  3 11  2  0
  4  7  2  0
  4 14  1  0
  5  8  1  0
  5 14  2  0
  6 17  2  0
  7 18  1  0
  8 18  2  0
  9 12  2  0
  9 15  1  0
 10 12  1  0
 10 16  2  0
 11 13  1  0
 11 17  1  0
 12 21  1  0
 13 20  2  0
 13 22  1  0
 14 27  1  0
 15 19  2  0
 15 25  1  0
 16 19  1  0
 16 26  1  0
 17 28  1  0
 18 31  1  0
 19 32  1  0
 20 23  1  0
 20 28  1  0
 21 29  1  0
 21 30  2  0
 22 24  1  0
 23 29  1  0
 24 29  1  0
 27 28  1  0
  1 33  1  0
  2 34  1  0
  3 35  1  0
  4 36  1  0
  5 37  1  0
  6 38  1  0
  7 39  1  0
  8 40  1  0
  9 41  1  0
 10 42  1  0
 22 43  1  0
 22 44  1  0
 23 45  1  0
 23 46  1  0
 24 47  1  0
 24 48  1  0
 25 49  1  0
 25 50  1  0
 25 51  1  0
 26 52  1  0
 26 53  1  0
 26 54  1  0
 27 55  1  0
 27 56  1  0
 31 57  1  0
 32 58  1  0
M  END
>  <s_m_entry_id>  (63) 
21837

>  <s_m_Source_Path>  (63) 
C:\Users\vinicius\Downloads\Ligands_Ecoli

>  <s_m_Source_File>  (63) 
Ligands_Ecoli_o.sdf

>  <i_m_Source_File_Index>  (63) 
21

>  <i_f3d_flags>  (63) 
0

>  <r_lp_tautomer_probability>  (63) 
1

>  <r_epik_Ionization_Penalty>  (63) 
  0.0072

>  <r_epik_State_Penalty>  (63) 
  0.0000

>  <i_epik_Tot_Q>  (63) 
0

>  <s_m_job_name>  (63) 
ligs_ecFabI_ligprep_2

>  <class_value>  (63) 
0

>  <FRED Chemgauss4 score>  (63) 
-12.556128

>  <Name>  (63) 
CHEMBL73455

>  <Set>  (63) 
training

>  <HBA count>  (63) 
4

>  <HBD count>  (63) 
2

>  <ExactMolWt>  (63) 
426.1943426920007

>  <NumRotatableBounds>  (63) 
7

>  <FractionCsp3>  (63) 
0.2222222222222222

>  <TPSA>  (63) 
65.7

>  <LogP_WildmanCrippen>  (63) 
4.916140000000006

>  <General_Cluster>  (63) 
1

>  <Biological_Cluster>  (63) 
2

>  <Physicochemical_Cluster>  (63) 
3

>  <Structural_Cluster>  (63) 
7

$$$$
CHEMBL2178323
     RDKit          3D

 27 28  0  0  0  0  0  0  0  0999 V2000
  112.0451   66.0240   38.5159 C   0  0  0  0  0  0  0  0  0  0  0  0
  110.5388   67.3310   32.8605 C   0  0  0  0  0  0  0  0  0  0  0  0
  111.4949   66.5892   33.5542 C   0  0  0  0  0  0  0  0  0  0  0  0
  112.1002   66.0464   37.1268 C   0  0  0  0  0  0  0  0  0  0  0  0
  111.8794   64.8138   39.1802 C   0  0  0  0  0  0  0  0  0  0  0  0
  108.7845   66.0012   33.8561 C   0  0  0  0  0  0  0  0  0  0  0  0
  109.1836   67.0371   33.0115 C   0  0  0  0  0  0  0  0  0  0  0  0
  111.0958   65.5533   34.3988 C   0  0  0  0  0  0  0  0  0  0  0  0
  109.7406   65.2593   34.5498 C   0  0  0  0  0  0  0  0  0  0  0  0
  111.9855   64.8407   36.4537 C   0  0  0  0  0  0  0  0  0  0  0  0
  111.7745   63.6634   38.4152 C   0  0  0  0  0  0  0  0  0  0  0  0
  108.1612   67.8318   32.2718 C   0  0  0  0  0  0  0  0  0  0  0  0
  111.8236   63.6455   37.0643 N   0  0  0  0  0  0  0  0  0  0  0  0
  109.3388   64.2495   35.3711 O   0  0  0  0  0  0  0  0  0  0  0  0
  108.0175   69.1061   32.8872 O   0  0  0  0  0  0  0  0  0  0  0  0
  112.0395   64.8362   35.0706 O   0  0  0  0  0  0  0  0  0  0  0  0
  111.6158   62.4883   39.0437 F   0  0  0  0  0  0  0  0  0  0  0  0
  112.1323   66.9600   39.0871 H   0  0  0  0  0  0  0  0  0  0  0  0
  110.8535   68.1478   32.1943 H   0  0  0  0  0  0  0  0  0  0  0  0
  112.5636   66.8211   33.4352 H   0  0  0  0  0  0  0  0  0  0  0  0
  112.2307   66.9915   36.5794 H   0  0  0  0  0  0  0  0  0  0  0  0
  111.8331   64.7711   40.2784 H   0  0  0  0  0  0  0  0  0  0  0  0
  107.7158   65.7693   33.9751 H   0  0  0  0  0  0  0  0  0  0  0  0
  108.4826   67.9625   31.2280 H   0  0  0  0  0  0  0  0  0  0  0  0
  107.1974   67.3022   32.2941 H   0  0  0  0  0  0  0  0  0  0  0  0
  110.0107   63.7179   35.8672 H   0  0  0  0  0  0  0  0  0  0  0  0
  108.0294   69.0005   33.8715 H   0  0  0  0  0  0  0  0  0  0  0  0
  1  4  2  0
  1  5  1  0
  2  3  2  0
  2  7  1  0
  3  8  1  0
  4 10  1  0
  5 11  2  0
  6  7  2  0
  6  9  1  0
  7 12  1  0
  8  9  2  0
  8 16  1  0
  9 14  1  0
 10 13  2  0
 10 16  1  0
 11 13  1  0
 11 17  1  0
 12 15  1  0
  1 18  1  0
  2 19  1  0
  3 20  1  0
  4 21  1  0
  5 22  1  0
  6 23  1  0
 12 24  1  0
 12 25  1  0
 14 26  1  0
 15 27  1  0
M  END
>  <s_m_entry_id>  (64) 
22038

>  <s_m_Source_Path>  (64) 
C:\Users\vinicius\Downloads\Ligands_Ecoli

>  <s_m_Source_File>  (64) 
Ligands_Ecoli_o.sdf

>  <i_m_Source_File_Index>  (64) 
122

>  <i_f3d_flags>  (64) 
0

>  <r_lp_tautomer_probability>  (64) 
1

>  <r_epik_Ionization_Penalty>  (64) 
  0.0028

>  <r_epik_State_Penalty>  (64) 
  0.0020

>  <i_epik_Tot_Q>  (64) 
0

>  <s_m_job_name>  (64) 
ligs_ecFabI_ligprep_2

>  <class_value>  (64) 
0

>  <FRED Chemgauss4 score>  (64) 
-14.515758

>  <Name>  (64) 
CHEMBL2178323

>  <Set>  (64) 
training

>  <HBA count>  (64) 
4

>  <HBD count>  (64) 
2

>  <ExactMolWt>  (64) 
235.0644714

>  <NumRotatableBounds>  (64) 
5

>  <FractionCsp3>  (64) 
0.08333333333333333

>  <TPSA>  (64) 
62.58000000000001

>  <LogP_WildmanCrippen>  (64) 
2.2109000000000005

>  <General_Cluster>  (64) 
2

>  <Biological_Cluster>  (64) 
2

>  <Physicochemical_Cluster>  (64) 
6

>  <Structural_Cluster>  (64) 
3

$$$$
CHEMBL237451
     RDKit          3D

 39 41  0  0  0  0  0  0  0  0999 V2000
  108.7795   67.4221   35.0084 C   0  0  0  0  0  0  0  0  0  0  0  0
  108.4818   68.0969   33.8210 C   0  0  0  0  0  0  0  0  0  0  0  0
  110.0082   66.6748   32.5854 C   0  0  0  0  0  0  0  0  0  0  0  0
  107.5583   63.7423   42.3576 C   0  0  0  0  0  0  0  0  0  0  0  0
  108.9598   63.1669   43.8527 C   0  0  0  0  0  0  0  0  0  0  0  0
  109.7044   66.3556   34.9951 C   0  0  0  0  0  0  0  0  0  0  0  0
  110.3024   66.0012   33.7819 C   0  0  0  0  0  0  0  0  0  0  0  0
  109.0894   67.7265   32.6263 C   0  0  0  0  0  0  0  0  0  0  0  0
  108.7139   63.4343   41.6791 C   0  0  0  0  0  0  0  0  0  0  0  0
  110.9683   64.6943   35.7090 C   0  0  0  0  0  0  0  0  0  0  0  0
  111.4657   63.5132   37.8857 C   0  0  0  0  0  0  0  0  0  0  0  0
  109.8854   69.9106   31.0934 C   0  0  0  0  0  0  0  0  0  0  0  0
  109.0677   63.4493   40.2123 C   0  0  0  0  0  0  0  0  0  0  0  0
  110.2450   64.3674   39.8930 C   0  0  0  0  0  0  0  0  0  0  0  0
  107.7180   63.5740   43.7103 N   0  0  0  0  0  0  0  0  0  0  0  0
  110.0957   65.5980   36.0894 N   0  0  0  0  0  0  0  0  0  0  0  0
  109.6027   63.0679   42.6501 N   0  0  0  0  0  0  0  0  0  0  0  0
  111.5927   63.7555   36.4866 N   0  0  0  0  0  0  0  0  0  0  0  0
  110.5598   64.3955   38.4832 N   0  0  0  0  0  0  0  0  0  0  0  0
  112.0673   62.6432   38.5109 O   0  0  0  0  0  0  0  0  0  0  0  0
  108.9647   67.6957   30.0344 O   0  0  0  0  0  0  0  0  0  0  0  0
  107.3870   69.1970   31.3005 O   0  0  0  0  0  0  0  0  0  0  0  0
  111.3788   64.6810   34.0485 S   0  0  0  0  0  0  0  0  0  0  0  0
  108.7006   68.5862   31.1549 S   0  0  0  0  0  6  0  0  0  0  0  0
  108.2949   67.7209   35.9496 H   0  0  0  0  0  0  0  0  0  0  0  0
  107.7610   68.9277   33.8317 H   0  0  0  0  0  0  0  0  0  0  0  0
  110.4888   66.3820   31.6403 H   0  0  0  0  0  0  0  0  0  0  0  0
  106.6272   64.0796   41.8787 H   0  0  0  0  0  0  0  0  0  0  0  0
  109.4252   62.9341   44.8218 H   0  0  0  0  0  0  0  0  0  0  0  0
  110.1536   70.2104   32.1172 H   0  0  0  0  0  0  0  0  0  0  0  0
  110.7871   69.5715   30.5625 H   0  0  0  0  0  0  0  0  0  0  0  0
  109.4484   70.7692   30.5625 H   0  0  0  0  0  0  0  0  0  0  0  0
  109.3273   62.4259   39.9037 H   0  0  0  0  0  0  0  0  0  0  0  0
  108.1932   63.8330   39.6664 H   0  0  0  0  0  0  0  0  0  0  0  0
  109.9947   65.3878   40.2187 H   0  0  0  0  0  0  0  0  0  0  0  0
  111.1259   63.9773   40.4239 H   0  0  0  0  0  0  0  0  0  0  0  0
  110.5781   62.7715   42.5030 H   0  0  0  0  0  0  0  0  0  0  0  0
  112.2480   63.1357   35.9892 H   0  0  0  0  0  0  0  0  0  0  0  0
  110.0953   65.0982   37.8904 H   0  0  0  0  0  0  0  0  0  0  0  0
  1  2  2  0
  1  6  1  0
  2  8  1  0
  3  7  1  0
  3  8  2  0
  4  9  2  0
  4 15  1  0
  5 15  2  0
  5 17  1  0
  6  7  2  0
  6 16  1  0
  7 23  1  0
  8 24  1  0
  9 13  1  0
  9 17  1  0
 10 16  2  0
 10 18  1  0
 10 23  1  0
 11 18  1  0
 11 19  1  0
 11 20  2  0
 12 24  1  0
 13 14  1  0
 14 19  1  0
 21 24  2  0
 22 24  2  0
  1 25  1  0
  2 26  1  0
  3 27  1  0
  4 28  1  0
  5 29  1  0
 12 30  1  0
 12 31  1  0
 12 32  1  0
 13 33  1  0
 13 34  1  0
 14 35  1  0
 14 36  1  0
 17 37  1  0
 18 38  1  0
 19 39  1  0
M  END
>  <s_m_entry_id>  (65) 
21918

>  <s_m_Source_Path>  (65) 
C:\Users\vinicius\Downloads\Ligands_Ecoli

>  <s_m_Source_File>  (65) 
Ligands_Ecoli_o.sdf

>  <i_m_Source_File_Index>  (65) 
62

>  <i_f3d_flags>  (65) 
0

>  <r_lp_tautomer_probability>  (65) 
0.499999999999999

>  <r_epik_Ionization_Penalty>  (65) 
  0.3465

>  <r_epik_State_Penalty>  (65) 
  0.6125

>  <i_epik_Tot_Q>  (65) 
0

>  <s_m_job_name>  (65) 
ligs_ecFabI_ligprep_2

>  <class_value>  (65) 
0

>  <FRED Chemgauss4 score>  (65) 
-11.615208

>  <Name>  (65) 
CHEMBL237451

>  <Set>  (65) 
training

>  <HBA count>  (65) 
6

>  <HBD count>  (65) 
3

>  <ExactMolWt>  (65) 
365.0616313400004

>  <NumRotatableBounds>  (65) 
6

>  <FractionCsp3>  (65) 
0.21428571428571427

>  <TPSA>  (65) 
116.83999999999997

>  <LogP_WildmanCrippen>  (65) 
1.7870999999999995

>  <General_Cluster>  (65) 
3

>  <Biological_Cluster>  (65) 
2

>  <Physicochemical_Cluster>  (65) 
8

>  <Structural_Cluster>  (65) 
4

$$$$
CHEMBL291805
     RDKit          3D

 40 42  0  0  0  0  0  0  0  0999 V2000
  108.8902   66.7813   33.2131 C   0  0  0  0  0  0  0  0  0  0  0  0
  111.0185   67.9163   33.0745 C   0  0  0  0  0  0  0  0  0  0  0  0
  109.9045   66.8056   40.4069 C   0  0  0  0  0  0  0  0  0  0  0  0
  109.9555   64.4173   40.7680 C   0  0  0  0  0  0  0  0  0  0  0  0
  110.8167   66.6669   39.3608 C   0  0  0  0  0  0  0  0  0  0  0  0
  110.8677   64.2786   39.7219 C   0  0  0  0  0  0  0  0  0  0  0  0
  108.3702   67.6377   32.2427 C   0  0  0  0  0  0  0  0  0  0  0  0
  110.4985   68.7728   32.1041 C   0  0  0  0  0  0  0  0  0  0  0  0
  110.8603   64.6583   34.5711 C   0  0  0  0  0  0  0  0  0  0  0  0
  110.2143   66.9206   33.6291 C   0  0  0  0  0  0  0  0  0  0  0  0
  109.4739   65.6808   41.1105 C   0  0  0  0  0  0  0  0  0  0  0  0
  111.2983   65.4035   39.0183 C   0  0  0  0  0  0  0  0  0  0  0  0
  109.1743   68.6335   31.6882 C   0  0  0  0  0  0  0  0  0  0  0  0
  110.7619   66.0188   34.6511 C   0  0  0  0  0  0  0  0  0  0  0  0
  111.6788   65.2885   36.5290 C   0  0  0  0  0  0  0  0  0  0  0  0
  108.4983   65.8281   42.2287 C   0  0  0  0  0  0  0  0  0  0  0  0
  107.3057   69.2713   30.3626 C   0  0  0  0  0  0  0  0  0  0  0  0
  112.2909   65.2530   37.8775 C   0  0  0  0  0  0  0  0  0  0  0  0
  111.4315   64.2332   35.7463 N   0  0  0  0  0  0  0  0  0  0  0  0
  111.2754   66.3813   35.8730 N   0  0  0  0  0  4  0  0  0  0  0  0
  108.6670   69.4693   30.7414 O   0  0  0  0  0  0  0  0  0  0  0  0
  108.2561   65.9960   33.6504 H   0  0  0  0  0  0  0  0  0  0  0  0
  112.0627   68.0261   33.4024 H   0  0  0  0  0  0  0  0  0  0  0  0
  109.5247   67.8020   40.6770 H   0  0  0  0  0  0  0  0  0  0  0  0
  109.6159   63.5303   41.3229 H   0  0  0  0  0  0  0  0  0  0  0  0
  111.1563   67.5539   38.8059 H   0  0  0  0  0  0  0  0  0  0  0  0
  111.2475   63.2822   39.4518 H   0  0  0  0  0  0  0  0  0  0  0  0
  107.3260   67.5278   31.9147 H   0  0  0  0  0  0  0  0  0  0  0  0
  111.1326   69.5581   31.6668 H   0  0  0  0  0  0  0  0  0  0  0  0
  110.5435   64.0257   33.7288 H   0  0  0  0  0  0  0  0  0  0  0  0
  109.0274   65.7482   43.1898 H   0  0  0  0  0  0  0  0  0  0  0  0
  108.0080   66.8104   42.1606 H   0  0  0  0  0  0  0  0  0  0  0  0
  107.7399   65.0343   42.1606 H   0  0  0  0  0  0  0  0  0  0  0  0
  106.6834   69.1808   31.2651 H   0  0  0  0  0  0  0  0  0  0  0  0
  106.9628   70.1290   29.7653 H   0  0  0  0  0  0  0  0  0  0  0  0
  107.2214   68.3514   29.7653 H   0  0  0  0  0  0  0  0  0  0  0  0
  113.0215   66.0725   37.9460 H   0  0  0  0  0  0  0  0  0  0  0  0
  112.7510   64.2601   37.9888 H   0  0  0  0  0  0  0  0  0  0  0  0
  111.6373   63.2531   35.9870 H   0  0  0  0  0  0  0  0  0  0  0  0
  111.3396   67.3459   36.2285 H   0  0  0  0  0  0  0  0  0  0  0  0
  1  7  2  0
  1 10  1  0
  2  8  1  0
  2 10  2  0
  3  5  2  0
  3 11  1  0
  4  6  1  0
  4 11  2  0
  5 12  1  0
  6 12  2  0
  7 13  1  0
  8 13  2  0
  9 14  2  0
  9 19  1  0
 10 14  1  0
 11 16  1  0
 12 18  1  0
 13 21  1  0
 14 20  1  0
 15 18  1  0
 15 19  1  0
 15 20  2  0
 17 21  1  0
  1 22  1  0
  2 23  1  0
  3 24  1  0
  4 25  1  0
  5 26  1  0
  6 27  1  0
  7 28  1  0
  8 29  1  0
  9 30  1  0
 16 31  1  0
 16 32  1  0
 16 33  1  0
 17 34  1  0
 17 35  1  0
 17 36  1  0
 18 37  1  0
 18 38  1  0
 19 39  1  0
 20 40  1  0
M  CHG  1  20   1
M  END
>  <s_m_entry_id>  (66) 
21873

>  <s_m_Source_Path>  (66) 
C:\Users\vinicius\Downloads\Ligands_Ecoli

>  <s_m_Source_File>  (66) 
Ligands_Ecoli_o.sdf

>  <i_m_Source_File_Index>  (66) 
40

>  <i_f3d_flags>  (66) 
0

>  <r_lp_tautomer_probability>  (66) 
1

>  <r_epik_Ionization_Penalty>  (66) 
  2.7035

>  <r_epik_State_Penalty>  (66) 
  1.8150

>  <i_epik_Tot_Q>  (66) 
1

>  <s_m_job_name>  (66) 
ligs_ecFabI_ligprep_2

>  <class_value>  (66) 
0

>  <FRED Chemgauss4 score>  (66) 
-17.277922

>  <Name>  (66) 
CHEMBL291805

>  <Set>  (66) 
training

>  <HBA count>  (66) 
1

>  <HBD count>  (66) 
1

>  <ExactMolWt>  (66) 
279.1491896480905

>  <NumRotatableBounds>  (66) 
6

>  <FractionCsp3>  (66) 
0.16666666666666666

>  <TPSA>  (66) 
39.16

>  <LogP_WildmanCrippen>  (66) 
3.403620000000001

>  <General_Cluster>  (66) 
2

>  <Biological_Cluster>  (66) 
2

>  <Physicochemical_Cluster>  (66) 
6

>  <Structural_Cluster>  (66) 
3

$$$$
CHEMBL73331
     RDKit          3D

 53 57  0  0  0  0  0  0  0  0999 V2000
  108.7032   69.1803   42.9330 C   0  0  0  0  0  0  0  0  0  0  0  0
  108.6421   68.2469   43.9654 C   0  0  0  0  0  0  0  0  0  0  0  0
  109.3146   68.8623   41.7150 C   0  0  0  0  0  0  0  0  0  0  0  0
  109.9271   65.3268   36.2431 C   0  0  0  0  0  0  0  0  0  0  0  0
  112.0528   64.8337   35.2061 C   0  0  0  0  0  0  0  0  0  0  0  0
  108.6482   63.2719   44.2595 C   0  0  0  0  0  0  0  0  0  0  0  0
  108.6684   63.0602   41.8528 C   0  0  0  0  0  0  0  0  0  0  0  0
  109.1879   66.9690   43.8149 C   0  0  0  0  0  0  0  0  0  0  0  0
  109.4652   65.8633   35.0413 C   0  0  0  0  0  0  0  0  0  0  0  0
  111.5909   65.3702   34.0042 C   0  0  0  0  0  0  0  0  0  0  0  0
  107.4537   62.5537   44.3127 C   0  0  0  0  0  0  0  0  0  0  0  0
  107.4739   62.3419   41.9060 C   0  0  0  0  0  0  0  0  0  0  0  0
  109.8733   67.5805   41.5385 C   0  0  0  0  0  0  0  0  0  0  0  0
  111.2210   64.8121   36.3255 C   0  0  0  0  0  0  0  0  0  0  0  0
  110.5506   66.9277   40.4730 C   0  0  0  0  0  0  0  0  0  0  0  0
  109.2556   63.5252   43.0295 C   0  0  0  0  0  0  0  0  0  0  0  0
  109.7964   66.6627   42.5922 C   0  0  0  0  0  0  0  0  0  0  0  0
  110.2971   65.8850   33.9218 C   0  0  0  0  0  0  0  0  0  0  0  0
  106.8665   62.0887   43.1359 C   0  0  0  0  0  0  0  0  0  0  0  0
  110.8591   65.6514   40.8939 C   0  0  0  0  0  0  0  0  0  0  0  0
  111.7080   64.2464   37.5928 C   0  0  0  0  0  0  0  0  0  0  0  0
  110.9106   67.3998   39.1087 C   0  0  0  0  0  0  0  0  0  0  0  0
  111.5755   64.6082   40.1147 C   0  0  0  0  0  0  0  0  0  0  0  0
  112.0319   66.5194   38.5308 C   0  0  0  0  0  0  0  0  0  0  0  0
  110.5446   64.2995   42.9720 C   0  0  0  0  0  0  0  0  0  0  0  0
  110.4055   65.4986   42.1727 N   0  0  0  0  0  0  0  0  0  0  0  0
  111.7485   65.0799   38.7169 N   0  0  0  0  0  0  0  0  0  0  0  0
  109.8300   66.4274   32.7066 N   0  0  0  0  0  0  0  0  0  0  0  0
  112.0421   63.0626   37.5690 O   0  0  0  0  0  0  0  0  0  0  0  0
  105.7016   61.3867   43.1882 O   0  0  0  0  0  0  0  0  0  0  0  0
  108.2656   70.1792   43.0769 H   0  0  0  0  0  0  0  0  0  0  0  0
  108.1567   68.5199   44.9140 H   0  0  0  0  0  0  0  0  0  0  0  0
  109.3586   69.6046   40.9044 H   0  0  0  0  0  0  0  0  0  0  0  0
  109.2711   65.3096   37.1259 H   0  0  0  0  0  0  0  0  0  0  0  0
  113.0730   64.4277   35.2711 H   0  0  0  0  0  0  0  0  0  0  0  0
  109.1113   63.6386   45.1875 H   0  0  0  0  0  0  0  0  0  0  0  0
  109.1473   63.2600   40.8829 H   0  0  0  0  0  0  0  0  0  0  0  0
  109.1409   66.2302   44.6285 H   0  0  0  0  0  0  0  0  0  0  0  0
  108.4449   66.2693   34.9763 H   0  0  0  0  0  0  0  0  0  0  0  0
  112.2469   65.3873   33.1214 H   0  0  0  0  0  0  0  0  0  0  0  0
  106.9747   62.3540   45.2826 H   0  0  0  0  0  0  0  0  0  0  0  0
  107.0109   61.9751   40.9781 H   0  0  0  0  0  0  0  0  0  0  0  0
  110.0267   67.3399   38.4566 H   0  0  0  0  0  0  0  0  0  0  0  0
  111.2598   68.4413   39.1655 H   0  0  0  0  0  0  0  0  0  0  0  0
  112.5615   64.4233   40.5659 H   0  0  0  0  0  0  0  0  0  0  0  0
  110.9936   63.6748   40.1219 H   0  0  0  0  0  0  0  0  0  0  0  0
  112.1296   66.7272   37.4550 H   0  0  0  0  0  0  0  0  0  0  0  0
  112.9638   66.7571   39.0647 H   0  0  0  0  0  0  0  0  0  0  0  0
  110.8379   64.5825   43.9937 H   0  0  0  0  0  0  0  0  0  0  0  0
  111.3113   63.6614   42.5083 H   0  0  0  0  0  0  0  0  0  0  0  0
  110.4442   66.4434   31.8800 H   0  0  0  0  0  0  0  0  0  0  0  0
  108.8746   66.8075   32.6458 H   0  0  0  0  0  0  0  0  0  0  0  0
  105.2847   61.0566   42.3532 H   0  0  0  0  0  0  0  0  0  0  0  0
  1  2  2  0
  1  3  1  0
  2  8  1  0
  3 13  2  0
  4  9  2  0
  4 14  1  0
  5 10  1  0
  5 14  2  0
  6 11  2  0
  6 16  1  0
  7 12  1  0
  7 16  2  0
  8 17  2  0
  9 18  1  0
 10 18  2  0
 11 19  1  0
 12 19  2  0
 13 15  1  0
 13 17  1  0
 14 21  1  0
 15 20  2  0
 15 22  1  0
 16 25  1  0
 17 26  1  0
 18 28  1  0
 19 30  1  0
 20 23  1  0
 20 26  1  0
 21 27  1  0
 21 29  2  0
 22 24  1  0
 23 27  1  0
 24 27  1  0
 25 26  1  0
  1 31  1  0
  2 32  1  0
  3 33  1  0
  4 34  1  0
  5 35  1  0
  6 36  1  0
  7 37  1  0
  8 38  1  0
  9 39  1  0
 10 40  1  0
 11 41  1  0
 12 42  1  0
 22 43  1  0
 22 44  1  0
 23 45  1  0
 23 46  1  0
 24 47  1  0
 24 48  1  0
 25 49  1  0
 25 50  1  0
 28 51  1  0
 28 52  1  0
 30 53  1  0
M  END
>  <s_m_entry_id>  (67) 
21831

>  <s_m_Source_Path>  (67) 
C:\Users\vinicius\Downloads\Ligands_Ecoli

>  <s_m_Source_File>  (67) 
Ligands_Ecoli_o.sdf

>  <i_m_Source_File_Index>  (67) 
17

>  <i_f3d_flags>  (67) 
0

>  <r_lp_tautomer_probability>  (67) 
0.999999999997365

>  <r_epik_Ionization_Penalty>  (67) 
  0.0024

>  <r_epik_State_Penalty>  (67) 
  0.0016

>  <i_epik_Tot_Q>  (67) 
0

>  <s_m_job_name>  (67) 
ligs_ecFabI_ligprep_2

>  <class_value>  (67) 
0

>  <FRED Chemgauss4 score>  (67) 
-13.098085

>  <Name>  (67) 
CHEMBL73331

>  <Set>  (67) 
training

>  <HBA count>  (67) 
4

>  <HBD count>  (67) 
2

>  <ExactMolWt>  (67) 
397.17902697600067

>  <NumRotatableBounds>  (67) 
5

>  <FractionCsp3>  (67) 
0.16

>  <TPSA>  (67) 
71.49

>  <LogP_WildmanCrippen>  (67) 
4.175900000000003

>  <General_Cluster>  (67) 
1

>  <Biological_Cluster>  (67) 
2

>  <Physicochemical_Cluster>  (67) 
3

>  <Structural_Cluster>  (67) 
7

$$$$
CHEMBL2178309
     RDKit          3D

 40 41  0  0  0  0  0  0  0  0999 V2000
  112.0762   65.7854   40.0713 C   0  0  0  0  0  0  0  0  0  0  0  0
  109.7221   66.3264   35.1104 C   0  0  0  0  0  0  0  0  0  0  0  0
  111.0684   65.0906   40.7400 C   0  0  0  0  0  0  0  0  0  0  0  0
  112.4037   65.4471   38.7583 C   0  0  0  0  0  0  0  0  0  0  0  0
  110.4122   65.6665   36.1272 C   0  0  0  0  0  0  0  0  0  0  0  0
  110.9702   65.0836   33.4566 C   0  0  0  0  0  0  0  0  0  0  0  0
  110.7157   63.7188   38.7827 C   0  0  0  0  0  0  0  0  0  0  0  0
  110.0010   66.0349   33.7751 C   0  0  0  0  0  0  0  0  0  0  0  0
  110.3882   64.0572   40.0957 C   0  0  0  0  0  0  0  0  0  0  0  0
  111.7234   64.4137   38.1140 C   0  0  0  0  0  0  0  0  0  0  0  0
  111.3813   64.7152   35.8087 C   0  0  0  0  0  0  0  0  0  0  0  0
  111.6603   64.4237   34.4734 C   0  0  0  0  0  0  0  0  0  0  0  0
  108.9160   63.5580   42.0725 C   0  0  0  0  0  0  0  0  0  0  0  0
  107.8084   62.5962   42.4224 C   0  0  0  0  0  0  0  0  0  0  0  0
  109.2317   68.7277   31.1177 C   0  0  0  0  0  0  0  0  0  0  0  0
  109.2614   66.7385   32.6879 C   0  0  0  0  0  0  0  0  0  0  0  0
  109.9691   68.0297   32.2495 C   0  0  0  0  0  0  0  0  0  0  0  0
  109.3800   63.3626   40.7649 N   0  0  0  0  0  0  0  0  0  0  0  0
  109.3085   64.3872   42.8870 O   0  0  0  0  0  0  0  0  0  0  0  0
  112.6052   63.4971   34.1501 O   0  0  0  0  0  0  0  0  0  0  0  0
  112.0484   64.0778   36.8112 O   0  0  0  0  0  0  0  0  0  0  0  0
  112.6128   66.6002   40.5794 H   0  0  0  0  0  0  0  0  0  0  0  0
  108.9579   67.0767   35.3615 H   0  0  0  0  0  0  0  0  0  0  0  0
  110.8100   65.3576   41.7754 H   0  0  0  0  0  0  0  0  0  0  0  0
  113.1984   65.9952   38.2310 H   0  0  0  0  0  0  0  0  0  0  0  0
  110.1922   65.8963   37.1802 H   0  0  0  0  0  0  0  0  0  0  0  0
  111.1903   64.8538   32.4036 H   0  0  0  0  0  0  0  0  0  0  0  0
  110.1792   62.9039   38.2746 H   0  0  0  0  0  0  0  0  0  0  0  0
  107.7208   62.5201   43.5163 H   0  0  0  0  0  0  0  0  0  0  0  0
  106.8594   62.9616   42.0031 H   0  0  0  0  0  0  0  0  0  0  0  0
  108.0371   61.6053   42.0031 H   0  0  0  0  0  0  0  0  0  0  0  0
  108.4932   69.4267   31.5373 H   0  0  0  0  0  0  0  0  0  0  0  0
  109.9516   69.2830   30.4985 H   0  0  0  0  0  0  0  0  0  0  0  0
  108.7168   67.9784   30.4985 H   0  0  0  0  0  0  0  0  0  0  0  0
  109.1809   66.0662   31.8210 H   0  0  0  0  0  0  0  0  0  0  0  0
  108.2685   67.0111   33.0750 H   0  0  0  0  0  0  0  0  0  0  0  0
  110.9853   67.7801   31.9105 H   0  0  0  0  0  0  0  0  0  0  0  0
  109.9936   68.7130   33.1112 H   0  0  0  0  0  0  0  0  0  0  0  0
  108.9191   62.6122   40.2308 H   0  0  0  0  0  0  0  0  0  0  0  0
  113.0997   63.0240   34.8655 H   0  0  0  0  0  0  0  0  0  0  0  0
  1  3  2  0
  1  4  1  0
  2  5  2  0
  2  8  1  0
  3  9  1  0
  4 10  2  0
  5 11  1  0
  6  8  2  0
  6 12  1  0
  7  9  2  0
  7 10  1  0
  8 16  1  0
  9 18  1  0
 10 21  1  0
 11 12  2  0
 11 21  1  0
 12 20  1  0
 13 14  1  0
 13 18  1  0
 13 19  2  0
 15 17  1  0
 16 17  1  0
  1 22  1  0
  2 23  1  0
  3 24  1  0
  4 25  1  0
  5 26  1  0
  6 27  1  0
  7 28  1  0
 14 29  1  0
 14 30  1  0
 14 31  1  0
 15 32  1  0
 15 33  1  0
 15 34  1  0
 16 35  1  0
 16 36  1  0
 17 37  1  0
 17 38  1  0
 18 39  1  0
 20 40  1  0
M  END
>  <s_m_entry_id>  (68) 
22018

>  <s_m_Source_Path>  (68) 
C:\Users\vinicius\Downloads\Ligands_Ecoli

>  <s_m_Source_File>  (68) 
Ligands_Ecoli_o.sdf

>  <i_m_Source_File_Index>  (68) 
111

>  <i_f3d_flags>  (68) 
0

>  <r_lp_tautomer_probability>  (68) 
1

>  <r_epik_Ionization_Penalty>  (68) 
  0.0039

>  <r_epik_State_Penalty>  (68) 
  0.0028

>  <i_epik_Tot_Q>  (68) 
0

>  <s_m_job_name>  (68) 
ligs_ecFabI_ligprep_2

>  <class_value>  (68) 
0

>  <FRED Chemgauss4 score>  (68) 
-16.245588

>  <Name>  (68) 
CHEMBL2178309

>  <Set>  (68) 
training

>  <HBA count>  (68) 
3

>  <HBD count>  (68) 
2

>  <ExactMolWt>  (68) 
285.13649346800054

>  <NumRotatableBounds>  (68) 
8

>  <FractionCsp3>  (68) 
0.23529411764705882

>  <TPSA>  (68) 
58.56

>  <LogP_WildmanCrippen>  (68) 
4.095400000000003

>  <General_Cluster>  (68) 
1

>  <Biological_Cluster>  (68) 
2

>  <Physicochemical_Cluster>  (68) 
3

>  <Structural_Cluster>  (68) 
3

$$$$
CHEMBL565647
     RDKit          3D

 53 56  0  0  0  0  0  0  0  0999 V2000
  106.2352   66.0308   42.3887 C   0  0  0  0  0  0  0  0  0  0  0  0
  106.5347   64.6727   42.5233 C   0  0  0  0  0  0  0  0  0  0  0  0
  107.1438   66.9159   41.7924 C   0  0  0  0  0  0  0  0  0  0  0  0
  107.7488   64.1494   42.0688 C   0  0  0  0  0  0  0  0  0  0  0  0
  109.7644   65.7458   35.0400 C   0  0  0  0  0  0  0  0  0  0  0  0
  111.5413   64.9681   33.6648 C   0  0  0  0  0  0  0  0  0  0  0  0
  108.3710   66.4112   41.3279 C   0  0  0  0  0  0  0  0  0  0  0  0
  110.9283   65.0022   34.9014 C   0  0  0  0  0  0  0  0  0  0  0  0
  109.2264   66.4472   33.9492 C   0  0  0  0  0  0  0  0  0  0  0  0
  109.5173   66.9548   40.6904 C   0  0  0  0  0  0  0  0  0  0  0  0
  108.6316   65.0532   41.4805 C   0  0  0  0  0  0  0  0  0  0  0  0
  110.3880   65.9071   40.4990 C   0  0  0  0  0  0  0  0  0  0  0  0
  109.8708   66.3474   32.6984 C   0  0  0  0  0  0  0  0  0  0  0  0
  111.4960   64.2846   36.0287 C   0  0  0  0  0  0  0  0  0  0  0  0
  111.2359   64.5422   37.3320 C   0  0  0  0  0  0  0  0  0  0  0  0
  111.9102   63.7522   38.4041 C   0  0  0  0  0  0  0  0  0  0  0  0
  107.9812   67.2776   34.1703 C   0  0  0  0  0  0  0  0  0  0  0  0
  108.0637   67.3229   31.3153 C   0  0  0  0  0  0  0  0  0  0  0  0
  107.6707   68.5658   32.1115 C   0  0  0  0  0  0  0  0  0  0  0  0
  109.7346   68.3630   40.3073 C   0  0  0  0  0  0  0  0  0  0  0  0
  112.8089   63.7235   40.6993 C   0  0  0  0  0  0  0  0  0  0  0  0
  111.7559   65.8042   39.8886 C   0  0  0  0  0  0  0  0  0  0  0  0
  111.0089   65.6263   32.6294 N   0  0  0  0  0  4  0  0  0  0  0  0
  109.4422   66.9329   31.5273 N   0  0  0  0  0  0  0  0  0  0  0  0
  108.0544   68.5848   33.5225 N   0  0  0  0  0  0  0  0  0  0  0  0
  112.1292   64.4180   39.6134 N   0  0  0  0  0  0  0  0  0  0  0  0
  112.2581   62.5915   38.1820 O   0  0  0  0  0  0  0  0  0  0  0  0
  109.8602   64.7493   40.9750 O   0  0  0  0  0  0  0  0  0  0  0  0
  105.2709   66.4114   42.7566 H   0  0  0  0  0  0  0  0  0  0  0  0
  105.8014   64.0026   42.9958 H   0  0  0  0  0  0  0  0  0  0  0  0
  106.9015   67.9840   41.6899 H   0  0  0  0  0  0  0  0  0  0  0  0
  107.9941   63.0819   42.1701 H   0  0  0  0  0  0  0  0  0  0  0  0
  109.2578   65.7860   36.0156 H   0  0  0  0  0  0  0  0  0  0  0  0
  112.4718   64.3970   33.5305 H   0  0  0  0  0  0  0  0  0  0  0  0
  112.1945   63.4647   35.8055 H   0  0  0  0  0  0  0  0  0  0  0  0
  110.5248   65.3368   37.6020 H   0  0  0  0  0  0  0  0  0  0  0  0
  107.1170   66.7313   33.7644 H   0  0  0  0  0  0  0  0  0  0  0  0
  107.8824   67.4476   35.2526 H   0  0  0  0  0  0  0  0  0  0  0  0
  107.4122   66.4903   31.6193 H   0  0  0  0  0  0  0  0  0  0  0  0
  107.9480   67.5631   30.2481 H   0  0  0  0  0  0  0  0  0  0  0  0
  108.1382   69.4353   31.6262 H   0  0  0  0  0  0  0  0  0  0  0  0
  106.5708   68.5778   32.1086 H   0  0  0  0  0  0  0  0  0  0  0  0
  109.8297   68.9791   41.2136 H   0  0  0  0  0  0  0  0  0  0  0  0
  110.6557   68.4429   39.7113 H   0  0  0  0  0  0  0  0  0  0  0  0
  108.8804   68.7169   39.7113 H   0  0  0  0  0  0  0  0  0  0  0  0
  112.4394   64.1011   41.6641 H   0  0  0  0  0  0  0  0  0  0  0  0
  112.6083   62.6444   40.6267 H   0  0  0  0  0  0  0  0  0  0  0  0
  113.8921   63.9008   40.6267 H   0  0  0  0  0  0  0  0  0  0  0  0
  111.7672   66.3692   38.9449 H   0  0  0  0  0  0  0  0  0  0  0  0
  112.4806   66.2153   40.6068 H   0  0  0  0  0  0  0  0  0  0  0  0
  111.4977   65.5798   31.7240 H   0  0  0  0  0  0  0  0  0  0  0  0
  110.1266   67.0992   30.7757 H   0  0  0  0  0  0  0  0  0  0  0  0
  107.4257   69.2303   34.0215 H   0  0  0  0  0  0  0  0  0  0  0  0
  1  2  2  0
  1  3  1  0
  2  4  1  0
  3  7  2  0
  4 11  2  0
  5  8  2  0
  5  9  1  0
  6  8  1  0
  6 23  2  0
  7 10  1  0
  7 11  1  0
  8 14  1  0
  9 13  2  0
  9 17  1  0
 10 12  2  0
 10 20  1  0
 11 28  1  0
 12 22  1  0
 12 28  1  0
 13 23  1  0
 13 24  1  0
 14 15  2  0
 15 16  1  0
 16 26  1  0
 16 27  2  0
 17 25  1  0
 18 19  1  0
 18 24  1  0
 19 25  1  0
 21 26  1  0
 22 26  1  0
  1 29  1  0
  2 30  1  0
  3 31  1  0
  4 32  1  0
  5 33  1  0
  6 34  1  0
 14 35  1  0
 15 36  1  0
 17 37  1  0
 17 38  1  0
 18 39  1  0
 18 40  1  0
 19 41  1  0
 19 42  1  0
 20 43  1  0
 20 44  1  0
 20 45  1  0
 21 46  1  0
 21 47  1  0
 21 48  1  0
 22 49  1  0
 22 50  1  0
 23 51  1  0
 24 52  1  0
 25 53  1  0
M  CHG  1  23   1
M  END
>  <s_m_entry_id>  (69) 
21978

>  <s_m_Source_Path>  (69) 
C:\Users\vinicius\Downloads\Ligands_Ecoli

>  <s_m_Source_File>  (69) 
Ligands_Ecoli_o.sdf

>  <i_m_Source_File_Index>  (69) 
90

>  <i_f3d_flags>  (69) 
0

>  <r_epik_Ionization_Penalty>  (69) 
  1.8204

>  <r_epik_State_Penalty>  (69) 
  2.1216

>  <i_epik_Tot_Q>  (69) 
1

>  <s_m_job_name>  (69) 
ligs_ecFabI_ligprep_2

>  <class_value>  (69) 
1

>  <FRED Chemgauss4 score>  (69) 
-14.834158

>  <Name>  (69) 
CHEMBL565647

>  <Set>  (69) 
training

>  <HBA count>  (69) 
4

>  <HBD count>  (69) 
2

>  <ExactMolWt>  (69) 
377.19720246009075

>  <NumRotatableBounds>  (69) 
6

>  <FractionCsp3>  (69) 
0.2727272727272727

>  <TPSA>  (69) 
71.65

>  <LogP_WildmanCrippen>  (69) 
2.7422200000000005

>  <General_Cluster>  (69) 
1

>  <Biological_Cluster>  (69) 
1

>  <Physicochemical_Cluster>  (69) 
3

>  <Structural_Cluster>  (69) 
7

$$$$
CHEMBL567520
     RDKit          3D

 53 56  0  0  0  0  0  0  0  0999 V2000
  106.4091   66.6483   42.3796 C   0  0  0  0  0  0  0  0  0  0  0  0
  106.4464   65.2553   42.4812 C   0  0  0  0  0  0  0  0  0  0  0  0
  107.4828   67.3622   41.8299 C   0  0  0  0  0  0  0  0  0  0  0  0
  107.5538   64.5254   42.0390 C   0  0  0  0  0  0  0  0  0  0  0  0
  110.0233   65.8888   35.1066 C   0  0  0  0  0  0  0  0  0  0  0  0
  111.6424   64.8079   33.7420 C   0  0  0  0  0  0  0  0  0  0  0  0
  108.6067   66.6483   41.3785 C   0  0  0  0  0  0  0  0  0  0  0  0
  111.0320   64.9437   34.9724 C   0  0  0  0  0  0  0  0  0  0  0  0
  109.8513   66.9834   40.7829 C   0  0  0  0  0  0  0  0  0  0  0  0
  109.6335   66.6917   34.0223 C   0  0  0  0  0  0  0  0  0  0  0  0
  108.6053   65.2623   41.4972 C   0  0  0  0  0  0  0  0  0  0  0  0
  110.5164   65.7963   40.5806 C   0  0  0  0  0  0  0  0  0  0  0  0
  110.3287   66.5431   32.8031 C   0  0  0  0  0  0  0  0  0  0  0  0
  111.4249   64.1052   36.0907 C   0  0  0  0  0  0  0  0  0  0  0  0
  111.1816   64.3749   37.3949 C   0  0  0  0  0  0  0  0  0  0  0  0
  111.6672   63.4467   38.4583 C   0  0  0  0  0  0  0  0  0  0  0  0
  108.2407   68.8573   32.1115 C   0  0  0  0  0  0  0  0  0  0  0  0
  107.6592   67.8290   33.0730 C   0  0  0  0  0  0  0  0  0  0  0  0
  109.7301   68.7144   31.8251 C   0  0  0  0  0  0  0  0  0  0  0  0
  110.3377   68.3350   40.4461 C   0  0  0  0  0  0  0  0  0  0  0  0
  112.4815   63.1941   40.7712 C   0  0  0  0  0  0  0  0  0  0  0  0
  111.8574   65.4543   39.9983 C   0  0  0  0  0  0  0  0  0  0  0  0
  111.2794   65.5904   32.7204 N   0  0  0  0  0  4  0  0  0  0  0  0
  108.5432   67.5426   34.1857 N   0  0  0  0  0  0  0  0  0  0  0  0
  110.1422   67.3310   31.6819 N   0  0  0  0  0  0  0  0  0  0  0  0
  111.9732   64.0299   39.6912 N   0  0  0  0  0  0  0  0  0  0  0  0
  111.7986   62.2473   38.2103 O   0  0  0  0  0  0  0  0  0  0  0  0
  109.7691   64.7464   41.0107 O   0  0  0  0  0  0  0  0  0  0  0  0
  105.5229   67.1935   42.7367 H   0  0  0  0  0  0  0  0  0  0  0  0
  105.5883   64.7229   42.9173 H   0  0  0  0  0  0  0  0  0  0  0  0
  107.4468   68.4589   41.7532 H   0  0  0  0  0  0  0  0  0  0  0  0
  107.5930   63.4287   42.1146 H   0  0  0  0  0  0  0  0  0  0  0  0
  109.5215   66.0105   36.0779 H   0  0  0  0  0  0  0  0  0  0  0  0
  112.4303   64.0533   33.6014 H   0  0  0  0  0  0  0  0  0  0  0  0
  111.9643   63.1748   35.8594 H   0  0  0  0  0  0  0  0  0  0  0  0
  110.6239   65.2816   37.6720 H   0  0  0  0  0  0  0  0  0  0  0  0
  107.7016   68.7719   31.1564 H   0  0  0  0  0  0  0  0  0  0  0  0
  108.1185   69.8343   32.6020 H   0  0  0  0  0  0  0  0  0  0  0  0
  106.7084   68.2153   33.4690 H   0  0  0  0  0  0  0  0  0  0  0  0
  107.5156   66.8934   32.5127 H   0  0  0  0  0  0  0  0  0  0  0  0
  109.9620   69.2491   30.8922 H   0  0  0  0  0  0  0  0  0  0  0  0
  110.2753   69.1366   32.6821 H   0  0  0  0  0  0  0  0  0  0  0  0
  110.5387   68.8937   41.3721 H   0  0  0  0  0  0  0  0  0  0  0  0
  111.2636   68.2554   39.8575 H   0  0  0  0  0  0  0  0  0  0  0  0
  109.5734   68.8636   39.8575 H   0  0  0  0  0  0  0  0  0  0  0  0
  112.2100   63.6405   41.7392 H   0  0  0  0  0  0  0  0  0  0  0  0
  112.0417   62.1887   40.6949 H   0  0  0  0  0  0  0  0  0  0  0  0
  113.5765   63.1221   40.6949 H   0  0  0  0  0  0  0  0  0  0  0  0
  111.9998   66.0302   39.0720 H   0  0  0  0  0  0  0  0  0  0  0  0
  112.6260   65.7049   40.7443 H   0  0  0  0  0  0  0  0  0  0  0  0
  111.7544   65.4575   31.8162 H   0  0  0  0  0  0  0  0  0  0  0  0
  108.3634   67.9719   35.1046 H   0  0  0  0  0  0  0  0  0  0  0  0
  110.2962   66.9349   30.7437 H   0  0  0  0  0  0  0  0  0  0  0  0
  1  2  2  0
  1  3  1  0
  2  4  1  0
  3  7  2  0
  4 11  2  0
  5  8  2  0
  5 10  1  0
  6  8  1  0
  6 23  2  0
  7  9  1  0
  7 11  1  0
  8 14  1  0
  9 12  2  0
  9 20  1  0
 10 13  2  0
 10 24  1  0
 11 28  1  0
 12 22  1  0
 12 28  1  0
 13 23  1  0
 13 25  1  0
 14 15  2  0
 15 16  1  0
 16 26  1  0
 16 27  2  0
 17 18  1  0
 17 19  1  0
 18 24  1  0
 19 25  1  0
 21 26  1  0
 22 26  1  0
  1 29  1  0
  2 30  1  0
  3 31  1  0
  4 32  1  0
  5 33  1  0
  6 34  1  0
 14 35  1  0
 15 36  1  0
 17 37  1  0
 17 38  1  0
 18 39  1  0
 18 40  1  0
 19 41  1  0
 19 42  1  0
 20 43  1  0
 20 44  1  0
 20 45  1  0
 21 46  1  0
 21 47  1  0
 21 48  1  0
 22 49  1  0
 22 50  1  0
 23 51  1  0
 24 52  1  0
 25 53  1  0
M  CHG  1  23   1
M  END
>  <s_m_entry_id>  (70) 
21961

>  <s_m_Source_Path>  (70) 
C:\Users\vinicius\Downloads\Ligands_Ecoli

>  <s_m_Source_File>  (70) 
Ligands_Ecoli_o.sdf

>  <i_m_Source_File_Index>  (70) 
80

>  <i_f3d_flags>  (70) 
0

>  <r_epik_Ionization_Penalty>  (70) 
  0.6918

>  <r_epik_State_Penalty>  (70) 
  0.7138

>  <i_epik_Tot_Q>  (70) 
1

>  <s_m_job_name>  (70) 
ligs_ecFabI_ligprep_2

>  <class_value>  (70) 
1

>  <FRED Chemgauss4 score>  (70) 
-14.154374

>  <Name>  (70) 
CHEMBL567520

>  <Set>  (70) 
training

>  <HBA count>  (70) 
4

>  <HBD count>  (70) 
2

>  <ExactMolWt>  (70) 
377.19720246009075

>  <NumRotatableBounds>  (70) 
6

>  <FractionCsp3>  (70) 
0.2727272727272727

>  <TPSA>  (70) 
71.65

>  <LogP_WildmanCrippen>  (70) 
3.454620000000001

>  <General_Cluster>  (70) 
1

>  <Biological_Cluster>  (70) 
1

>  <Physicochemical_Cluster>  (70) 
3

>  <Structural_Cluster>  (70) 
7

$$$$
CHEMBL2178319
     RDKit          3D

 35 36  0  0  0  0  0  0  0  0999 V2000
  112.0115   66.1775   38.7907 C   0  0  0  0  0  0  0  0  0  0  0  0
  111.2194   66.6628   32.8663 C   0  0  0  0  0  0  0  0  0  0  0  0
  112.0166   65.9620   33.7713 C   0  0  0  0  0  0  0  0  0  0  0  0
  112.2051   65.9647   37.4304 C   0  0  0  0  0  0  0  0  0  0  0  0
  111.6513   65.1139   39.6107 C   0  0  0  0  0  0  0  0  0  0  0  0
  109.2421   65.6812   33.8480 C   0  0  0  0  0  0  0  0  0  0  0  0
  109.8321   66.5224   32.9047 C   0  0  0  0  0  0  0  0  0  0  0  0
  111.4266   65.1207   34.7146 C   0  0  0  0  0  0  0  0  0  0  0  0
  110.0393   64.9803   34.7530 C   0  0  0  0  0  0  0  0  0  0  0  0
  112.0274   64.6798   36.9432 C   0  0  0  0  0  0  0  0  0  0  0  0
  111.4982   63.8672   39.0259 C   0  0  0  0  0  0  0  0  0  0  0  0
  109.7290   69.5794   32.7245 C   0  0  0  0  0  0  0  0  0  0  0  0
  107.6224   69.3367   31.3953 C   0  0  0  0  0  0  0  0  0  0  0  0
  108.9692   67.2827   31.9273 C   0  0  0  0  0  0  0  0  0  0  0  0
  108.5317   68.6717   32.4318 C   0  0  0  0  0  0  0  0  0  0  0  0
  111.6778   63.6218   37.7087 N   0  0  0  0  0  0  0  0  0  0  0  0
  109.4517   64.1611   35.6691 O   0  0  0  0  0  0  0  0  0  0  0  0
  112.2164   64.4417   35.5928 O   0  0  0  0  0  0  0  0  0  0  0  0
  111.1523   62.8316   39.8062 F   0  0  0  0  0  0  0  0  0  0  0  0
  112.1428   67.1832   39.2165 H   0  0  0  0  0  0  0  0  0  0  0  0
  111.6847   67.3262   32.1224 H   0  0  0  0  0  0  0  0  0  0  0  0
  113.1106   66.0728   33.7411 H   0  0  0  0  0  0  0  0  0  0  0  0
  112.4904   66.7904   36.7620 H   0  0  0  0  0  0  0  0  0  0  0  0
  111.4929   65.2577   40.6897 H   0  0  0  0  0  0  0  0  0  0  0  0
  108.1481   65.5705   33.8783 H   0  0  0  0  0  0  0  0  0  0  0  0
  109.8578   69.6770   33.8126 H   0  0  0  0  0  0  0  0  0  0  0  0
  110.6374   69.1410   32.2856 H   0  0  0  0  0  0  0  0  0  0  0  0
  109.5522   70.5724   32.2856 H   0  0  0  0  0  0  0  0  0  0  0  0
  106.8378   69.9105   31.9102 H   0  0  0  0  0  0  0  0  0  0  0  0
  108.2182   70.0137   30.7654 H   0  0  0  0  0  0  0  0  0  0  0  0
  107.1578   68.5638   30.7654 H   0  0  0  0  0  0  0  0  0  0  0  0
  109.5368   67.4157   30.9945 H   0  0  0  0  0  0  0  0  0  0  0  0
  108.0528   66.6917   31.7826 H   0  0  0  0  0  0  0  0  0  0  0  0
  107.9844   68.5254   33.3747 H   0  0  0  0  0  0  0  0  0  0  0  0
  110.0100   63.6600   36.3151 H   0  0  0  0  0  0  0  0  0  0  0  0
  1  4  2  0
  1  5  1  0
  2  3  2  0
  2  7  1  0
  3  8  1  0
  4 10  1  0
  5 11  2  0
  6  7  2  0
  6  9  1  0
  7 14  1  0
  8  9  2  0
  8 18  1  0
  9 17  1  0
 10 16  2  0
 10 18  1  0
 11 16  1  0
 11 19  1  0
 12 15  1  0
 13 15  1  0
 14 15  1  0
  1 20  1  0
  2 21  1  0
  3 22  1  0
  4 23  1  0
  5 24  1  0
  6 25  1  0
 12 26  1  0
 12 27  1  0
 12 28  1  0
 13 29  1  0
 13 30  1  0
 13 31  1  0
 14 32  1  0
 14 33  1  0
 15 34  1  0
 17 35  1  0
M  END
>  <s_m_entry_id>  (71) 
22017

>  <s_m_Source_Path>  (71) 
C:\Users\vinicius\Downloads\Ligands_Ecoli

>  <s_m_Source_File>  (71) 
Ligands_Ecoli_o.sdf

>  <i_m_Source_File_Index>  (71) 
110

>  <i_f3d_flags>  (71) 
0

>  <r_lp_tautomer_probability>  (71) 
1

>  <r_epik_Ionization_Penalty>  (71) 
  0.0019

>  <r_epik_State_Penalty>  (71) 
  0.0013

>  <i_epik_Tot_Q>  (71) 
0

>  <s_m_job_name>  (71) 
ligs_ecFabI_ligprep_2

>  <class_value>  (71) 
1

>  <FRED Chemgauss4 score>  (71) 
-16.122597

>  <Name>  (71) 
CHEMBL2178319

>  <Set>  (71) 
training

>  <HBA count>  (71) 
3

>  <HBD count>  (71) 
1

>  <ExactMolWt>  (71) 
261.11650697200014

>  <NumRotatableBounds>  (71) 
7

>  <FractionCsp3>  (71) 
0.26666666666666666

>  <TPSA>  (71) 
42.35000000000001

>  <LogP_WildmanCrippen>  (71) 
3.9171000000000027

>  <General_Cluster>  (71) 
4

>  <Biological_Cluster>  (71) 
1

>  <Physicochemical_Cluster>  (71) 
3

>  <Structural_Cluster>  (71) 
3

$$$$
CHEMBL586043
     RDKit          3D

 62 66  0  0  0  0  0  0  0  0999 V2000
  109.3956   66.2509   33.4096 C   0  0  0  0  0  0  0  0  0  0  0  0
  110.7512   66.5250   33.2112 C   0  0  0  0  0  0  0  0  0  0  0  0
  108.9574   65.5535   34.5437 C   0  0  0  0  0  0  0  0  0  0  0  0
  111.7169   66.1143   34.1350 C   0  0  0  0  0  0  0  0  0  0  0  0
  107.8942   64.7315   41.7220 C   0  0  0  0  0  0  0  0  0  0  0  0
  107.6060   67.0865   41.6149 C   0  0  0  0  0  0  0  0  0  0  0  0
  109.9114   65.1311   35.4860 C   0  0  0  0  0  0  0  0  0  0  0  0
  108.4363   65.9878   41.4804 C   0  0  0  0  0  0  0  0  0  0  0  0
  106.5578   64.6136   42.1058 C   0  0  0  0  0  0  0  0  0  0  0  0
  109.8795   64.4265   36.7182 C   0  0  0  0  0  0  0  0  0  0  0  0
  111.2512   65.4235   35.2522 C   0  0  0  0  0  0  0  0  0  0  0  0
  111.1834   64.3375   37.1479 C   0  0  0  0  0  0  0  0  0  0  0  0
  105.8049   65.7786   42.2200 C   0  0  0  0  0  0  0  0  0  0  0  0
  103.8244   64.5106   42.9820 C   0  0  0  0  0  0  0  0  0  0  0  0
  109.8247   66.1416   41.0860 C   0  0  0  0  0  0  0  0  0  0  0  0
  110.5994   65.1687   40.5508 C   0  0  0  0  0  0  0  0  0  0  0  0
  112.0280   65.4430   40.2161 C   0  0  0  0  0  0  0  0  0  0  0  0
  105.9058   63.2765   42.2948 C   0  0  0  0  0  0  0  0  0  0  0  0
  103.9901   61.9775   43.2528 C   0  0  0  0  0  0  0  0  0  0  0  0
  105.3318   63.5338   44.7545 C   0  0  0  0  0  0  0  0  0  0  0  0
  103.0392   61.7097   44.4131 C   0  0  0  0  0  0  0  0  0  0  0  0
  104.3180   63.2827   45.8617 C   0  0  0  0  0  0  0  0  0  0  0  0
  104.7541   63.3246   43.3290 C   0  0  0  0  0  0  0  0  0  0  0  0
  108.6868   63.8943   37.4047 C   0  0  0  0  0  0  0  0  0  0  0  0
  113.9565   64.9065   38.7775 C   0  0  0  0  0  0  0  0  0  0  0  0
  111.8287   63.7265   38.3580 C   0  0  0  0  0  0  0  0  0  0  0  0
  106.3040   67.0121   41.9703 N   0  0  0  0  0  0  0  0  0  0  0  0
  104.4489   65.6758   42.5760 N   0  0  0  0  0  0  0  0  0  0  0  0
  112.5597   64.7166   39.1468 N   0  0  0  0  0  0  0  0  0  0  0  0
  103.7517   61.9153   45.7026 N   0  0  0  0  0  4  0  0  0  0  0  0
  102.6030   64.4618   43.1335 O   0  0  0  0  0  0  0  0  0  0  0  0
  112.6690   66.2530   40.8872 O   0  0  0  0  0  0  0  0  0  0  0  0
  112.0232   64.9391   36.2655 O   0  0  0  0  0  0  0  0  0  0  0  0
  108.6605   66.5878   32.6639 H   0  0  0  0  0  0  0  0  0  0  0  0
  111.0646   67.0743   32.3112 H   0  0  0  0  0  0  0  0  0  0  0  0
  107.8886   65.3410   34.6934 H   0  0  0  0  0  0  0  0  0  0  0  0
  112.7865   66.3250   33.9880 H   0  0  0  0  0  0  0  0  0  0  0  0
  108.5172   63.8317   41.6110 H   0  0  0  0  0  0  0  0  0  0  0  0
  108.0318   68.0820   41.4206 H   0  0  0  0  0  0  0  0  0  0  0  0
  110.2852   67.1295   41.2341 H   0  0  0  0  0  0  0  0  0  0  0  0
  110.1743   64.1719   40.3618 H   0  0  0  0  0  0  0  0  0  0  0  0
  105.5000   62.9412   41.3289 H   0  0  0  0  0  0  0  0  0  0  0  0
  106.6690   62.5807   42.6735 H   0  0  0  0  0  0  0  0  0  0  0  0
  104.7318   61.1657   43.2252 H   0  0  0  0  0  0  0  0  0  0  0  0
  103.3652   62.0293   42.3490 H   0  0  0  0  0  0  0  0  0  0  0  0
  105.6884   64.5711   44.8372 H   0  0  0  0  0  0  0  0  0  0  0  0
  106.1432   62.8028   44.8860 H   0  0  0  0  0  0  0  0  0  0  0  0
  102.1852   62.4004   44.3530 H   0  0  0  0  0  0  0  0  0  0  0  0
  102.6792   60.6718   44.3571 H   0  0  0  0  0  0  0  0  0  0  0  0
  104.8135   63.3646   46.8404 H   0  0  0  0  0  0  0  0  0  0  0  0
  103.5108   64.0275   45.8010 H   0  0  0  0  0  0  0  0  0  0  0  0
  108.8311   63.9587   38.4933 H   0  0  0  0  0  0  0  0  0  0  0  0
  107.8041   64.4839   37.1163 H   0  0  0  0  0  0  0  0  0  0  0  0
  108.5361   62.8435   37.1163 H   0  0  0  0  0  0  0  0  0  0  0  0
  114.5684   64.9897   39.6878 H   0  0  0  0  0  0  0  0  0  0  0  0
  114.2987   64.0466   38.1830 H   0  0  0  0  0  0  0  0  0  0  0  0
  114.0568   65.8265   38.1830 H   0  0  0  0  0  0  0  0  0  0  0  0
  111.0474   63.2767   38.9883 H   0  0  0  0  0  0  0  0  0  0  0  0
  112.5473   62.9682   38.0138 H   0  0  0  0  0  0  0  0  0  0  0  0
  103.8780   66.5319   42.5311 H   0  0  0  0  0  0  0  0  0  0  0  0
  103.0875   61.7469   46.4716 H   0  0  0  0  0  0  0  0  0  0  0  0
  104.5443   61.2576   45.7169 H   0  0  0  0  0  0  0  0  0  0  0  0
  1  2  2  0
  1  3  1  0
  2  4  1  0
  3  7  2  0
  4 11  2  0
  5  8  2  0
  5  9  1  0
  6  8  1  0
  6 27  2  0
  7 10  1  0
  7 11  1  0
  8 15  1  0
  9 13  2  0
  9 18  1  0
 10 12  2  0
 10 24  1  0
 11 33  1  0
 12 26  1  0
 12 33  1  0
 13 27  1  0
 13 28  1  0
 14 23  1  0
 14 28  1  0
 14 31  2  0
 15 16  2  0
 16 17  1  0
 17 29  1  0
 17 32  2  0
 18 23  1  0
 19 21  1  0
 19 23  1  0
 20 22  1  0
 20 23  1  0
 21 30  1  0
 22 30  1  0
 25 29  1  0
 26 29  1  0
  1 34  1  0
  2 35  1  0
  3 36  1  0
  4 37  1  0
  5 38  1  0
  6 39  1  0
 15 40  1  0
 16 41  1  0
 18 42  1  0
 18 43  1  0
 19 44  1  0
 19 45  1  0
 20 46  1  0
 20 47  1  0
 21 48  1  0
 21 49  1  0
 22 50  1  0
 22 51  1  0
 24 52  1  0
 24 53  1  0
 24 54  1  0
 25 55  1  0
 25 56  1  0
 25 57  1  0
 26 58  1  0
 26 59  1  0
 28 60  1  0
 30 61  1  0
 30 62  1  0
M  CHG  1  30   1
M  END
>  <s_m_entry_id>  (72) 
22016

>  <s_m_Source_Path>  (72) 
C:\Users\vinicius\Downloads\Ligands_Ecoli

>  <s_m_Source_File>  (72) 
Ligands_Ecoli_o.sdf

>  <i_m_Source_File_Index>  (72) 
109

>  <i_f3d_flags>  (72) 
0

>  <r_epik_Ionization_Penalty>  (72) 
  0.0037

>  <r_epik_State_Penalty>  (72) 
  0.0026

>  <i_epik_Tot_Q>  (72) 
1

>  <s_m_job_name>  (72) 
ligs_ecFabI_ligprep_2

>  <class_value>  (72) 
1

>  <FRED Chemgauss4 score>  (72) 
-11.930241

>  <Name>  (72) 
CHEMBL586043

>  <Set>  (72) 
training

>  <HBA count>  (72) 
4

>  <HBD count>  (72) 
2

>  <ExactMolWt>  (72) 
445.22341720809084

>  <NumRotatableBounds>  (72) 
6

>  <FractionCsp3>  (72) 
0.34615384615384615

>  <TPSA>  (72) 
92.05

>  <LogP_WildmanCrippen>  (72) 
2.6462200000000005

>  <General_Cluster>  (72) 
4

>  <Biological_Cluster>  (72) 
1

>  <Physicochemical_Cluster>  (72) 
3

>  <Structural_Cluster>  (72) 
5

$$$$
CHEMBL2178318
     RDKit          3D

 32 33  0  0  0  0  0  0  0  0999 V2000
  110.6936   64.4573   39.7582 C   0  0  0  0  0  0  0  0  0  0  0  0
  109.3113   66.6546   34.1958 C   0  0  0  0  0  0  0  0  0  0  0  0
  109.5242   65.7440   35.2307 C   0  0  0  0  0  0  0  0  0  0  0  0
  110.3885   63.9208   38.5122 C   0  0  0  0  0  0  0  0  0  0  0  0
  111.6277   65.4824   39.8576 C   0  0  0  0  0  0  0  0  0  0  0  0
  111.1589   65.6942   32.9707 C   0  0  0  0  0  0  0  0  0  0  0  0
  110.1287   66.6297   33.0658 C   0  0  0  0  0  0  0  0  0  0  0  0
  110.5544   64.8085   35.1357 C   0  0  0  0  0  0  0  0  0  0  0  0
  111.3718   64.7835   34.0056 C   0  0  0  0  0  0  0  0  0  0  0  0
  111.0400   64.4403   37.4052 C   0  0  0  0  0  0  0  0  0  0  0  0
  112.2239   65.9319   38.6904 C   0  0  0  0  0  0  0  0  0  0  0  0
  108.1968   69.0265   30.7359 C   0  0  0  0  0  0  0  0  0  0  0  0
  109.8996   67.6016   31.9581 C   0  0  0  0  0  0  0  0  0  0  0  0
  108.4229   68.0097   31.8435 C   0  0  0  0  0  0  0  0  0  0  0  0
  111.9531   65.4356   37.4624 N   0  0  0  0  0  0  0  0  0  0  0  0
  112.3816   63.8751   33.9018 O   0  0  0  0  0  0  0  0  0  0  0  0
  110.7519   63.9246   36.1534 O   0  0  0  0  0  0  0  0  0  0  0  0
  113.1261   66.9220   38.7719 F   0  0  0  0  0  0  0  0  0  0  0  0
  110.1980   64.0723   40.6616 H   0  0  0  0  0  0  0  0  0  0  0  0
  108.4988   67.3923   34.2708 H   0  0  0  0  0  0  0  0  0  0  0  0
  108.8796   65.7636   36.1218 H   0  0  0  0  0  0  0  0  0  0  0  0
  109.6530   63.1094   38.4086 H   0  0  0  0  0  0  0  0  0  0  0  0
  111.8853   65.9227   40.8322 H   0  0  0  0  0  0  0  0  0  0  0  0
  111.8035   65.6746   32.0796 H   0  0  0  0  0  0  0  0  0  0  0  0
  107.9783   70.0092   31.1793 H   0  0  0  0  0  0  0  0  0  0  0  0
  109.1010   69.0979   30.1135 H   0  0  0  0  0  0  0  0  0  0  0  0
  107.3475   68.7080   30.1135 H   0  0  0  0  0  0  0  0  0  0  0  0
  110.5029   68.5020   32.1458 H   0  0  0  0  0  0  0  0  0  0  0  0
  110.1908   67.1155   31.0153 H   0  0  0  0  0  0  0  0  0  0  0  0
  108.1006   68.4483   32.7994 H   0  0  0  0  0  0  0  0  0  0  0  0
  107.8395   67.1090   31.6019 H   0  0  0  0  0  0  0  0  0  0  0  0
  112.5397   63.2251   34.6316 H   0  0  0  0  0  0  0  0  0  0  0  0
  1  4  2  0
  1  5  1  0
  2  3  2  0
  2  7  1  0
  3  8  1  0
  4 10  1  0
  5 11  2  0
  6  7  2  0
  6  9  1  0
  7 13  1  0
  8  9  2  0
  8 17  1  0
  9 16  1  0
 10 15  2  0
 10 17  1  0
 11 15  1  0
 11 18  1  0
 12 14  1  0
 13 14  1  0
  1 19  1  0
  2 20  1  0
  3 21  1  0
  4 22  1  0
  5 23  1  0
  6 24  1  0
 12 25  1  0
 12 26  1  0
 12 27  1  0
 13 28  1  0
 13 29  1  0
 14 30  1  0
 14 31  1  0
 16 32  1  0
M  END
>  <s_m_entry_id>  (73) 
22045

>  <s_m_Source_Path>  (73) 
C:\Users\vinicius\Downloads\Ligands_Ecoli

>  <s_m_Source_File>  (73) 
Ligands_Ecoli_o.sdf

>  <i_m_Source_File_Index>  (73) 
128

>  <i_f3d_flags>  (73) 
0

>  <r_lp_tautomer_probability>  (73) 
1

>  <r_epik_Ionization_Penalty>  (73) 
  0.0019

>  <r_epik_State_Penalty>  (73) 
  0.0013

>  <i_epik_Tot_Q>  (73) 
0

>  <s_m_job_name>  (73) 
ligs_ecFabI_ligprep_2

>  <class_value>  (73) 
1

>  <FRED Chemgauss4 score>  (73) 
-15.540174

>  <Name>  (73) 
CHEMBL2178318

>  <Set>  (73) 
training

>  <HBA count>  (73) 
3

>  <HBD count>  (73) 
1

>  <ExactMolWt>  (73) 
247.100856908

>  <NumRotatableBounds>  (73) 
6

>  <FractionCsp3>  (73) 
0.21428571428571427

>  <TPSA>  (73) 
42.35000000000001

>  <LogP_WildmanCrippen>  (73) 
3.6711000000000023

>  <General_Cluster>  (73) 
4

>  <Biological_Cluster>  (73) 
1

>  <Physicochemical_Cluster>  (73) 
3

>  <Structural_Cluster>  (73) 
3

$$$$
CHEMBL303748
     RDKit          3D

 30 32  0  0  0  0  0  0  0  0999 V2000
  108.0794   67.3922   31.5573 C   0  0  0  0  0  0  0  0  0  0  0  0
  109.0711   69.4374   32.3762 C   0  0  0  0  0  0  0  0  0  0  0  0
  109.2449   66.6975   31.8807 C   0  0  0  0  0  0  0  0  0  0  0  0
  110.2366   68.7427   32.6997 C   0  0  0  0  0  0  0  0  0  0  0  0
  110.5983   66.1918   38.1345 C   0  0  0  0  0  0  0  0  0  0  0  0
  110.3872   65.9210   39.4686 C   0  0  0  0  0  0  0  0  0  0  0  0
  111.0217   63.9076   38.2064 C   0  0  0  0  0  0  0  0  0  0  0  0
  110.9657   65.0255   37.4032 C   0  0  0  0  0  0  0  0  0  0  0  0
  107.9925   68.7622   31.8050 C   0  0  0  0  0  0  0  0  0  0  0  0
  110.3235   67.3727   32.4519 C   0  0  0  0  0  0  0  0  0  0  0  0
  111.2405   65.0512   35.9844 C   0  0  0  0  0  0  0  0  0  0  0  0
  111.4674   65.8237   34.0788 C   0  0  0  0  0  0  0  0  0  0  0  0
  106.7466   69.5056   31.4598 C   0  0  0  0  0  0  0  0  0  0  0  0
  111.5687   66.6290   32.7990 C   0  0  0  0  0  0  0  0  0  0  0  0
  111.1543   66.2205   35.2864 N   0  0  0  0  0  0  0  0  0  0  0  0
  111.5866   63.9741   35.2731 N   0  0  0  0  0  0  0  0  0  0  0  0
  111.7403   64.4961   33.9825 O   0  0  0  0  0  0  0  0  0  0  0  0
  110.6319   64.2662   39.8348 S   0  0  0  0  0  0  0  0  0  0  0  0
  107.2288   66.8597   31.1069 H   0  0  0  0  0  0  0  0  0  0  0  0
  109.0026   70.5177   32.5716 H   0  0  0  0  0  0  0  0  0  0  0  0
  109.3134   65.6172   31.6853 H   0  0  0  0  0  0  0  0  0  0  0  0
  111.0872   69.2752   33.1502 H   0  0  0  0  0  0  0  0  0  0  0  0
  110.4953   67.1911   37.6864 H   0  0  0  0  0  0  0  0  0  0  0  0
  110.0958   66.6785   40.2111 H   0  0  0  0  0  0  0  0  0  0  0  0
  111.2857   62.9030   37.8443 H   0  0  0  0  0  0  0  0  0  0  0  0
  106.2341   69.8114   32.3839 H   0  0  0  0  0  0  0  0  0  0  0  0
  107.0036   70.3982   30.8705 H   0  0  0  0  0  0  0  0  0  0  0  0
  106.0831   68.8556   30.8705 H   0  0  0  0  0  0  0  0  0  0  0  0
  111.8017   65.9399   31.9739 H   0  0  0  0  0  0  0  0  0  0  0  0
  112.3558   67.3810   32.9568 H   0  0  0  0  0  0  0  0  0  0  0  0
  1  3  2  0
  1  9  1  0
  2  4  1  0
  2  9  2  0
  3 10  1  0
  4 10  2  0
  5  6  2  0
  5  8  1  0
  6 18  1  0
  7  8  2  0
  7 18  1  0
  8 11  1  0
  9 13  1  0
 10 14  1  0
 11 15  1  0
 11 16  2  0
 12 14  1  0
 12 15  2  0
 12 17  1  0
 16 17  1  0
  1 19  1  0
  2 20  1  0
  3 21  1  0
  4 22  1  0
  5 23  1  0
  6 24  1  0
  7 25  1  0
 13 26  1  0
 13 27  1  0
 13 28  1  0
 14 29  1  0
 14 30  1  0
M  END
>  <s_m_entry_id>  (74) 
21884

>  <s_m_Source_Path>  (74) 
C:\Users\vinicius\Downloads\Ligands_Ecoli

>  <s_m_Source_File>  (74) 
Ligands_Ecoli_o.sdf

>  <i_m_Source_File_Index>  (74) 
47

>  <i_f3d_flags>  (74) 
0

>  <r_lp_tautomer_probability>  (74) 
1

>  <r_epik_Ionization_Penalty>  (74) 
  0.0000

>  <r_epik_State_Penalty>  (74) 
  0.0000

>  <i_epik_Tot_Q>  (74) 
0

>  <s_m_job_name>  (74) 
ligs_ecFabI_ligprep_2

>  <class_value>  (74) 
0

>  <FRED Chemgauss4 score>  (74) 
-13.738029

>  <Name>  (74) 
CHEMBL303748

>  <Set>  (74) 
training

>  <HBA count>  (74) 
4

>  <HBD count>  (74) 
0

>  <ExactMolWt>  (74) 
256.067034004

>  <NumRotatableBounds>  (74) 
4

>  <FractionCsp3>  (74) 
0.14285714285714285

>  <TPSA>  (74) 
38.92

>  <LogP_WildmanCrippen>  (74) 
3.697320000000003

>  <General_Cluster>  (74) 
2

>  <Biological_Cluster>  (74) 
2

>  <Physicochemical_Cluster>  (74) 
6

>  <Structural_Cluster>  (74) 
1

$$$$
CHEMBL294363
     RDKit          3D

 40 43  0  0  0  0  0  0  0  0999 V2000
  107.5055   69.5517   30.9055 C   0  0  0  0  0  0  0  0  0  0  0  0
  108.6936   69.9517   31.5170 C   0  0  0  0  0  0  0  0  0  0  0  0
  106.9845   68.2824   31.1571 C   0  0  0  0  0  0  0  0  0  0  0  0
  109.3609   69.0824   32.3800 C   0  0  0  0  0  0  0  0  0  0  0  0
  107.6518   67.4132   32.0201 C   0  0  0  0  0  0  0  0  0  0  0  0
  108.8117   65.9759   34.2688 C   0  0  0  0  0  0  0  0  0  0  0  0
  110.9202   66.9789   33.6482 C   0  0  0  0  0  0  0  0  0  0  0  0
  109.4791   65.1068   35.1319 C   0  0  0  0  0  0  0  0  0  0  0  0
  111.5876   66.1098   34.5114 C   0  0  0  0  0  0  0  0  0  0  0  0
  109.1716   63.7600   41.3706 C   0  0  0  0  0  0  0  0  0  0  0  0
  110.3109   64.4151   38.3543 C   0  0  0  0  0  0  0  0  0  0  0  0
  108.3576   64.0456   42.4446 C   0  0  0  0  0  0  0  0  0  0  0  0
  109.2381   66.0833   41.3852 C   0  0  0  0  0  0  0  0  0  0  0  0
  112.3490   65.2777   38.3030 C   0  0  0  0  0  0  0  0  0  0  0  0
  108.8400   67.8131   32.6316 C   0  0  0  0  0  0  0  0  0  0  0  0
  109.5323   66.9119   33.5269 C   0  0  0  0  0  0  0  0  0  0  0  0
  109.6818   64.9403   40.7569 C   0  0  0  0  0  0  0  0  0  0  0  0
  110.8670   65.1738   35.2532 C   0  0  0  0  0  0  0  0  0  0  0  0
  110.5785   64.9384   39.5878 C   0  0  0  0  0  0  0  0  0  0  0  0
  111.5807   64.2445   36.1759 C   0  0  0  0  0  0  0  0  0  0  0  0
  111.4233   64.6395   37.5795 N   0  0  0  0  0  0  0  0  0  0  0  0
  111.8461   65.4653   39.5275 N   0  0  0  0  0  4  0  0  0  0  0  0
  108.2110   65.7311   42.7093 S   0  0  0  0  0  0  0  0  0  0  0  0
  106.9794   70.2372   30.2248 H   0  0  0  0  0  0  0  0  0  0  0  0
  109.1044   70.9527   31.3187 H   0  0  0  0  0  0  0  0  0  0  0  0
  106.0475   67.9670   30.6749 H   0  0  0  0  0  0  0  0  0  0  0  0
  110.2979   69.3978   32.8622 H   0  0  0  0  0  0  0  0  0  0  0  0
  107.2410   66.4123   32.2185 H   0  0  0  0  0  0  0  0  0  0  0  0
  107.7171   65.9232   34.1732 H   0  0  0  0  0  0  0  0  0  0  0  0
  111.4885   67.7170   33.0632 H   0  0  0  0  0  0  0  0  0  0  0  0
  108.9109   64.3686   35.7169 H   0  0  0  0  0  0  0  0  0  0  0  0
  112.6822   66.1626   34.6071 H   0  0  0  0  0  0  0  0  0  0  0  0
  109.4008   62.7404   41.0271 H   0  0  0  0  0  0  0  0  0  0  0  0
  109.3842   63.9115   38.0419 H   0  0  0  0  0  0  0  0  0  0  0  0
  107.8604   63.2811   43.0597 H   0  0  0  0  0  0  0  0  0  0  0  0
  109.5114   67.1021   41.0731 H   0  0  0  0  0  0  0  0  0  0  0  0
  113.3439   65.5915   37.9541 H   0  0  0  0  0  0  0  0  0  0  0  0
  111.1744   63.2308   36.0440 H   0  0  0  0  0  0  0  0  0  0  0  0
  112.6525   64.2771   35.9307 H   0  0  0  0  0  0  0  0  0  0  0  0
  112.3335   65.9325   40.3054 H   0  0  0  0  0  0  0  0  0  0  0  0
  1  2  2  0
  1  3  1  0
  2  4  1  0
  3  5  2  0
  4 15  2  0
  5 15  1  0
  6  8  2  0
  6 16  1  0
  7  9  1  0
  7 16  2  0
  8 18  1  0
  9 18  2  0
 10 12  2  0
 10 17  1  0
 11 19  2  0
 11 21  1  0
 12 23  1  0
 13 17  2  0
 13 23  1  0
 14 21  1  0
 14 22  2  0
 15 16  1  0
 17 19  1  0
 18 20  1  0
 19 22  1  0
 20 21  1  0
  1 24  1  0
  2 25  1  0
  3 26  1  0
  4 27  1  0
  5 28  1  0
  6 29  1  0
  7 30  1  0
  8 31  1  0
  9 32  1  0
 10 33  1  0
 11 34  1  0
 12 35  1  0
 13 36  1  0
 14 37  1  0
 20 38  1  0
 20 39  1  0
 22 40  1  0
M  CHG  1  22   1
M  END
>  <s_m_entry_id>  (75) 
21879

>  <s_m_Source_Path>  (75) 
C:\Users\vinicius\Downloads\Ligands_Ecoli

>  <s_m_Source_File>  (75) 
Ligands_Ecoli_o.sdf

>  <i_m_Source_File_Index>  (75) 
43

>  <i_f3d_flags>  (75) 
0

>  <r_lp_tautomer_probability>  (75) 
1

>  <r_epik_Ionization_Penalty>  (75) 
  0.8997

>  <r_epik_State_Penalty>  (75) 
  0.9395

>  <i_epik_Tot_Q>  (75) 
1

>  <s_m_job_name>  (75) 
ligs_ecFabI_ligprep_2

>  <class_value>  (75) 
0

>  <FRED Chemgauss4 score>  (75) 
-16.380970

>  <Name>  (75) 
CHEMBL294363

>  <Set>  (75) 
training

>  <HBA count>  (75) 
2

>  <HBD count>  (75) 
0

>  <ExactMolWt>  (75) 
317.1106959640905

>  <NumRotatableBounds>  (75) 
4

>  <FractionCsp3>  (75) 
0.05

>  <TPSA>  (75) 
19.07

>  <LogP_WildmanCrippen>  (75) 
4.746000000000003

>  <General_Cluster>  (75) 
2

>  <Biological_Cluster>  (75) 
2

>  <Physicochemical_Cluster>  (75) 
6

>  <Structural_Cluster>  (75) 
1

$$$$
CHEMBL73311
     RDKit          3D

 38 41  0  0  0  0  0  0  0  0999 V2000
  109.1842   68.9957   30.8394 C   0  0  0  0  0  0  0  0  0  0  0  0
  108.1922   69.5636   31.6358 C   0  0  0  0  0  0  0  0  0  0  0  0
  109.9698   67.9407   31.3171 C   0  0  0  0  0  0  0  0  0  0  0  0
  111.1515   63.8850   38.6930 C   0  0  0  0  0  0  0  0  0  0  0  0
  112.3794   65.9336   38.3287 C   0  0  0  0  0  0  0  0  0  0  0  0
  107.9537   69.0975   32.9317 C   0  0  0  0  0  0  0  0  0  0  0  0
  110.9239   64.2570   40.0179 C   0  0  0  0  0  0  0  0  0  0  0  0
  112.1518   66.3056   39.6536 C   0  0  0  0  0  0  0  0  0  0  0  0
  109.7484   67.4520   32.6204 C   0  0  0  0  0  0  0  0  0  0  0  0
  111.8793   64.7233   37.8484 C   0  0  0  0  0  0  0  0  0  0  0  0
  110.3340   66.4273   33.4124 C   0  0  0  0  0  0  0  0  0  0  0  0
  108.7459   68.0422   33.3983 C   0  0  0  0  0  0  0  0  0  0  0  0
  111.4241   65.4673   40.4982 C   0  0  0  0  0  0  0  0  0  0  0  0
  109.6898   66.4222   34.6316 C   0  0  0  0  0  0  0  0  0  0  0  0
  112.1192   64.3313   36.4512 C   0  0  0  0  0  0  0  0  0  0  0  0
  111.4427   65.4788   33.1202 C   0  0  0  0  0  0  0  0  0  0  0  0
  109.9622   65.5144   35.7762 C   0  0  0  0  0  0  0  0  0  0  0  0
  111.3745   64.2831   34.0858 C   0  0  0  0  0  0  0  0  0  0  0  0
  108.7315   67.3947   34.6160 N   0  0  0  0  0  0  0  0  0  0  0  0
  111.1836   64.7206   35.4855 N   0  0  0  0  0  0  0  0  0  0  0  0
  113.1371   63.6747   36.2357 O   0  0  0  0  0  0  0  0  0  0  0  0
  111.2023   65.8305   41.7910 O   0  0  0  0  0  0  0  0  0  0  0  0
  109.3520   69.3812   29.8229 H   0  0  0  0  0  0  0  0  0  0  0  0
  107.5871   70.3919   31.2385 H   0  0  0  0  0  0  0  0  0  0  0  0
  110.7515   67.4977   30.6824 H   0  0  0  0  0  0  0  0  0  0  0  0
  110.7571   62.9306   38.3142 H   0  0  0  0  0  0  0  0  0  0  0  0
  112.9533   66.5947   37.6626 H   0  0  0  0  0  0  0  0  0  0  0  0
  107.1711   69.5442   33.5625 H   0  0  0  0  0  0  0  0  0  0  0  0
  110.3500   63.5960   40.6840 H   0  0  0  0  0  0  0  0  0  0  0  0
  112.5462   67.2601   40.0324 H   0  0  0  0  0  0  0  0  0  0  0  0
  111.3511   65.1179   32.0851 H   0  0  0  0  0  0  0  0  0  0  0  0
  112.4054   65.9950   33.2492 H   0  0  0  0  0  0  0  0  0  0  0  0
  110.1173   66.1084   36.6889 H   0  0  0  0  0  0  0  0  0  0  0  0
  109.1072   64.8386   35.9255 H   0  0  0  0  0  0  0  0  0  0  0  0
  110.5318   63.6383   33.7958 H   0  0  0  0  0  0  0  0  0  0  0  0
  112.3277   63.7376   34.0240 H   0  0  0  0  0  0  0  0  0  0  0  0
  108.0943   67.6119   35.3956 H   0  0  0  0  0  0  0  0  0  0  0  0
  111.5574   66.6895   42.1317 H   0  0  0  0  0  0  0  0  0  0  0  0
  1  2  2  0
  1  3  1  0
  2  6  1  0
  3  9  2  0
  4  7  2  0
  4 10  1  0
  5  8  1  0
  5 10  2  0
  6 12  2  0
  7 13  1  0
  8 13  2  0
  9 11  1  0
  9 12  1  0
 10 15  1  0
 11 14  2  0
 11 16  1  0
 12 19  1  0
 13 22  1  0
 14 17  1  0
 14 19  1  0
 15 20  1  0
 15 21  2  0
 16 18  1  0
 17 20  1  0
 18 20  1  0
  1 23  1  0
  2 24  1  0
  3 25  1  0
  4 26  1  0
  5 27  1  0
  6 28  1  0
  7 29  1  0
  8 30  1  0
 16 31  1  0
 16 32  1  0
 17 33  1  0
 17 34  1  0
 18 35  1  0
 18 36  1  0
 19 37  1  0
 22 38  1  0
M  END
>  <s_m_entry_id>  (76) 
21817

>  <s_m_Source_Path>  (76) 
C:\Users\vinicius\Downloads\Ligands_Ecoli

>  <s_m_Source_File>  (76) 
Ligands_Ecoli_o.sdf

>  <i_m_Source_File_Index>  (76) 
8

>  <i_f3d_flags>  (76) 
0

>  <r_lp_tautomer_probability>  (76) 
0.999999999997365

>  <r_epik_Ionization_Penalty>  (76) 
  0.0358

>  <r_epik_State_Penalty>  (76) 
  0.0299

>  <i_epik_Tot_Q>  (76) 
0

>  <s_m_job_name>  (76) 
ligs_ecFabI_ligprep_2

>  <class_value>  (76) 
0

>  <FRED Chemgauss4 score>  (76) 
-15.129445

>  <Name>  (76) 
CHEMBL73311

>  <Set>  (76) 
training

>  <HBA count>  (76) 
2

>  <HBD count>  (76) 
2

>  <ExactMolWt>  (76) 
292.1211777520004

>  <NumRotatableBounds>  (76) 
2

>  <FractionCsp3>  (76) 
0.16666666666666666

>  <TPSA>  (76) 
56.33

>  <LogP_WildmanCrippen>  (76) 
3.0720000000000023

>  <General_Cluster>  (76) 
2

>  <Biological_Cluster>  (76) 
2

>  <Physicochemical_Cluster>  (76) 
6

>  <Structural_Cluster>  (76) 
1

$$$$
CHEMBL2178324
     RDKit          3D

 30 31  0  0  0  0  0  0  0  0999 V2000
  111.1371   66.1030   39.2318 C   0  0  0  0  0  0  0  0  0  0  0  0
  109.1527   66.6265   34.0082 C   0  0  0  0  0  0  0  0  0  0  0  0
  109.1751   65.7860   35.1211 C   0  0  0  0  0  0  0  0  0  0  0  0
  110.4572   65.6716   38.0983 C   0  0  0  0  0  0  0  0  0  0  0  0
  112.2013   65.3556   39.7239 C   0  0  0  0  0  0  0  0  0  0  0  0
  111.1954   65.6170   33.2047 C   0  0  0  0  0  0  0  0  0  0  0  0
  110.1628   66.5420   33.0499 C   0  0  0  0  0  0  0  0  0  0  0  0
  110.2076   64.8610   35.2759 C   0  0  0  0  0  0  0  0  0  0  0  0
  111.2178   64.7765   34.3177 C   0  0  0  0  0  0  0  0  0  0  0  0
  110.8773   64.4953   37.4985 C   0  0  0  0  0  0  0  0  0  0  0  0
  112.5432   64.1934   39.0515 C   0  0  0  0  0  0  0  0  0  0  0  0
  111.5012   69.1966   32.6163 C   0  0  0  0  0  0  0  0  0  0  0  0
  110.1377   67.4388   31.8587 C   0  0  0  0  0  0  0  0  0  0  0  0
  111.9064   63.7424   37.9475 N   0  0  0  0  0  0  0  0  0  0  0  0
  112.2317   63.8777   34.4584 O   0  0  0  0  0  0  0  0  0  0  0  0
  110.2179   64.0458   36.3675 O   0  0  0  0  0  0  0  0  0  0  0  0
  110.1788   68.7945   32.2870 O   0  0  0  0  0  0  0  0  0  0  0  0
  113.5694   63.4632   39.5149 F   0  0  0  0  0  0  0  0  0  0  0  0
  110.8343   67.0319   39.7372 H   0  0  0  0  0  0  0  0  0  0  0  0
  108.3385   67.3560   33.8862 H   0  0  0  0  0  0  0  0  0  0  0  0
  108.3785   65.8526   35.8767 H   0  0  0  0  0  0  0  0  0  0  0  0
  109.6124   66.2461   37.6905 H   0  0  0  0  0  0  0  0  0  0  0  0
  112.7543   65.6769   40.6188 H   0  0  0  0  0  0  0  0  0  0  0  0
  111.9920   65.5504   32.4491 H   0  0  0  0  0  0  0  0  0  0  0  0
  111.6125   69.2304   33.7101 H   0  0  0  0  0  0  0  0  0  0  0  0
  112.2187   68.4760   32.1969 H   0  0  0  0  0  0  0  0  0  0  0  0
  111.6962   70.1946   32.1969 H   0  0  0  0  0  0  0  0  0  0  0  0
  111.0100   67.2283   31.2224 H   0  0  0  0  0  0  0  0  0  0  0  0
  109.2156   67.2624   31.2854 H   0  0  0  0  0  0  0  0  0  0  0  0
  112.2554   63.2774   35.2452 H   0  0  0  0  0  0  0  0  0  0  0  0
  1  4  2  0
  1  5  1  0
  2  3  2  0
  2  7  1  0
  3  8  1  0
  4 10  1  0
  5 11  2  0
  6  7  2  0
  6  9  1  0
  7 13  1  0
  8  9  2  0
  8 16  1  0
  9 15  1  0
 10 14  2  0
 10 16  1  0
 11 14  1  0
 11 18  1  0
 12 17  1  0
 13 17  1  0
  1 19  1  0
  2 20  1  0
  3 21  1  0
  4 22  1  0
  5 23  1  0
  6 24  1  0
 12 25  1  0
 12 26  1  0
 12 27  1  0
 13 28  1  0
 13 29  1  0
 15 30  1  0
M  END
>  <s_m_entry_id>  (77) 
22013

>  <s_m_Source_Path>  (77) 
C:\Users\vinicius\Downloads\Ligands_Ecoli

>  <s_m_Source_File>  (77) 
Ligands_Ecoli_o.sdf

>  <i_m_Source_File_Index>  (77) 
106

>  <i_f3d_flags>  (77) 
0

>  <r_lp_tautomer_probability>  (77) 
1

>  <r_epik_Ionization_Penalty>  (77) 
  0.0032

>  <r_epik_State_Penalty>  (77) 
  0.0023

>  <i_epik_Tot_Q>  (77) 
0

>  <s_m_job_name>  (77) 
ligs_ecFabI_ligprep_2

>  <class_value>  (77) 
0

>  <FRED Chemgauss4 score>  (77) 
-15.704154

>  <Name>  (77) 
CHEMBL2178324

>  <Set>  (77) 
training

>  <HBA count>  (77) 
4

>  <HBD count>  (77) 
1

>  <ExactMolWt>  (77) 
249.080121464

>  <NumRotatableBounds>  (77) 
6

>  <FractionCsp3>  (77) 
0.15384615384615385

>  <TPSA>  (77) 
51.58000000000001

>  <LogP_WildmanCrippen>  (77) 
2.8650000000000015

>  <General_Cluster>  (77) 
2

>  <Biological_Cluster>  (77) 
2

>  <Physicochemical_Cluster>  (77) 
6

>  <Structural_Cluster>  (77) 
3

$$$$
CHEMBL2178306
     RDKit          3D

 32 34  0  0  0  0  0  0  0  0999 V2000
  111.6206   63.6910   39.8042 C   0  0  0  0  0  0  0  0  0  0  0  0
  109.4012   66.6716   34.2312 C   0  0  0  0  0  0  0  0  0  0  0  0
  109.3535   65.7735   35.2974 C   0  0  0  0  0  0  0  0  0  0  0  0
  110.9053   63.3408   38.6645 C   0  0  0  0  0  0  0  0  0  0  0  0
  112.3440   64.8782   39.8267 C   0  0  0  0  0  0  0  0  0  0  0  0
  111.3366   65.5242   33.3511 C   0  0  0  0  0  0  0  0  0  0  0  0
  107.1253   67.9832   31.1774 C   0  0  0  0  0  0  0  0  0  0  0  0
  108.6755   69.2810   31.6967 C   0  0  0  0  0  0  0  0  0  0  0  0
  110.3927   66.5469   33.2580 C   0  0  0  0  0  0  0  0  0  0  0  0
  110.2973   64.7507   35.3904 C   0  0  0  0  0  0  0  0  0  0  0  0
  111.2889   64.6260   34.4173 C   0  0  0  0  0  0  0  0  0  0  0  0
  110.9455   64.2052   37.5824 C   0  0  0  0  0  0  0  0  0  0  0  0
  112.3200   65.6737   38.6925 C   0  0  0  0  0  0  0  0  0  0  0  0
  110.4422   67.5056   32.1167 C   0  0  0  0  0  0  0  0  0  0  0  0
  107.4146   69.3087   31.3322 N   0  0  0  0  0  0  0  0  0  0  0  0
  108.1279   67.1371   31.4231 N   0  0  0  0  0  0  0  0  0  0  0  0
  111.6369   65.3668   37.5670 N   0  0  0  0  0  0  0  0  0  0  0  0
  109.1074   67.9926   31.7532 N   0  0  0  0  0  0  0  0  0  0  0  0
  112.2166   63.6318   34.4979 O   0  0  0  0  0  0  0  0  0  0  0  0
  110.2399   63.8801   36.4368 O   0  0  0  0  0  0  0  0  0  0  0  0
  113.0127   66.8231   38.7013 F   0  0  0  0  0  0  0  0  0  0  0  0
  111.6142   63.0315   40.6845 H   0  0  0  0  0  0  0  0  0  0  0  0
  108.6569   67.4782   34.1578 H   0  0  0  0  0  0  0  0  0  0  0  0
  108.5716   65.8719   36.0648 H   0  0  0  0  0  0  0  0  0  0  0  0
  110.3257   62.4068   38.6232 H   0  0  0  0  0  0  0  0  0  0  0  0
  112.9173   65.1765   40.7169 H   0  0  0  0  0  0  0  0  0  0  0  0
  112.1186   65.4260   32.5837 H   0  0  0  0  0  0  0  0  0  0  0  0
  106.1285   67.6346   30.8695 H   0  0  0  0  0  0  0  0  0  0  0  0
  109.2894   70.1655   31.9222 H   0  0  0  0  0  0  0  0  0  0  0  0
  111.0689   68.3640   32.4003 H   0  0  0  0  0  0  0  0  0  0  0  0
  110.8614   66.9787   31.2468 H   0  0  0  0  0  0  0  0  0  0  0  0
  112.1902   62.9900   35.2512 H   0  0  0  0  0  0  0  0  0  0  0  0
  1  4  2  0
  1  5  1  0
  2  3  2  0
  2  9  1  0
  3 10  1  0
  4 12  1  0
  5 13  2  0
  6  9  2  0
  6 11  1  0
  7 15  1  0
  7 16  2  0
  8 15  2  0
  8 18  1  0
  9 14  1  0
 10 11  2  0
 10 20  1  0
 11 19  1  0
 12 17  2  0
 12 20  1  0
 13 17  1  0
 13 21  1  0
 14 18  1  0
 16 18  1  0
  1 22  1  0
  2 23  1  0
  3 24  1  0
  4 25  1  0
  5 26  1  0
  6 27  1  0
  7 28  1  0
  8 29  1  0
 14 30  1  0
 14 31  1  0
 19 32  1  0
M  END
>  <s_m_entry_id>  (78) 
22056

>  <s_m_Source_Path>  (78) 
C:\Users\vinicius\Downloads\Ligands_Ecoli

>  <s_m_Source_File>  (78) 
Ligands_Ecoli_o.sdf

>  <i_m_Source_File_Index>  (78) 
134

>  <i_f3d_flags>  (78) 
0

>  <r_lp_tautomer_probability>  (78) 
1

>  <r_epik_Ionization_Penalty>  (78) 
  0.0056

>  <r_epik_State_Penalty>  (78) 
  0.0041

>  <i_epik_Tot_Q>  (78) 
0

>  <s_m_job_name>  (78) 
ligs_ecFabI_ligprep_2

>  <class_value>  (78) 
0

>  <FRED Chemgauss4 score>  (78) 
-15.661283

>  <Name>  (78) 
CHEMBL2178306

>  <Set>  (78) 
training

>  <HBA count>  (78) 
6

>  <HBD count>  (78) 
1

>  <ExactMolWt>  (78) 
286.0866038120003

>  <NumRotatableBounds>  (78) 
5

>  <FractionCsp3>  (78) 
0.07142857142857142

>  <TPSA>  (78) 
73.06

>  <LogP_WildmanCrippen>  (78) 
2.3584

>  <General_Cluster>  (78) 
2

>  <Biological_Cluster>  (78) 
2

>  <Physicochemical_Cluster>  (78) 
6

>  <Structural_Cluster>  (78) 
3

$$$$
CHEMBL304367
     RDKit          3D

 51 55  0  0  0  0  0  0  0  0999 V2000
  106.2664   62.6675   43.5009 C   0  0  0  0  0  0  0  0  0  0  0  0
  109.8095   69.0711   43.1408 C   0  0  0  0  0  0  0  0  0  0  0  0
  107.2027   62.8518   44.5182 C   0  0  0  0  0  0  0  0  0  0  0  0
  106.6285   62.8863   42.1717 C   0  0  0  0  0  0  0  0  0  0  0  0
  109.7377   68.0823   44.1196 C   0  0  0  0  0  0  0  0  0  0  0  0
  110.0274   68.7368   41.7995 C   0  0  0  0  0  0  0  0  0  0  0  0
  111.2817   64.6483   34.9039 C   0  0  0  0  0  0  0  0  0  0  0  0
  109.0945   65.5803   35.3337 C   0  0  0  0  0  0  0  0  0  0  0  0
  108.5011   63.2550   44.2064 C   0  0  0  0  0  0  0  0  0  0  0  0
  107.9269   63.2894   41.8599 C   0  0  0  0  0  0  0  0  0  0  0  0
  109.8804   66.7313   43.7911 C   0  0  0  0  0  0  0  0  0  0  0  0
  111.3131   65.2923   33.6670 C   0  0  0  0  0  0  0  0  0  0  0  0
  109.1259   66.2244   34.0968 C   0  0  0  0  0  0  0  0  0  0  0  0
  110.1755   67.3814   41.4426 C   0  0  0  0  0  0  0  0  0  0  0  0
  110.1723   64.7922   35.7372 C   0  0  0  0  0  0  0  0  0  0  0  0
  110.4013   66.6928   40.2198 C   0  0  0  0  0  0  0  0  0  0  0  0
  108.8632   63.4738   42.8772 C   0  0  0  0  0  0  0  0  0  0  0  0
  110.0977   66.4095   42.4464 C   0  0  0  0  0  0  0  0  0  0  0  0
  110.2353   66.0804   33.2635 C   0  0  0  0  0  0  0  0  0  0  0  0
  110.4496   65.3441   40.5028 C   0  0  0  0  0  0  0  0  0  0  0  0
  110.1391   64.1133   37.0415 C   0  0  0  0  0  0  0  0  0  0  0  0
  110.5584   67.1967   38.8287 C   0  0  0  0  0  0  0  0  0  0  0  0
  110.6736   64.2407   39.5328 C   0  0  0  0  0  0  0  0  0  0  0  0
  111.2502   66.1304   37.9623 C   0  0  0  0  0  0  0  0  0  0  0  0
  110.2637   63.9090   42.5401 C   0  0  0  0  0  0  0  0  0  0  0  0
  110.2696   65.1797   41.8462 N   0  0  0  0  0  0  0  0  0  0  0  0
  110.6474   64.7937   38.1544 N   0  0  0  0  0  0  0  0  0  0  0  0
  109.6532   62.9832   37.0559 O   0  0  0  0  0  0  0  0  0  0  0  0
  110.2656   66.7088   32.0566 O   0  0  0  0  0  0  0  0  0  0  0  0
  105.2424   62.3496   43.7468 H   0  0  0  0  0  0  0  0  0  0  0  0
  109.6935   70.1272   43.4257 H   0  0  0  0  0  0  0  0  0  0  0  0
  106.9172   62.6792   45.5664 H   0  0  0  0  0  0  0  0  0  0  0  0
  105.8901   62.7409   41.3694 H   0  0  0  0  0  0  0  0  0  0  0  0
  109.5660   68.3694   45.1675 H   0  0  0  0  0  0  0  0  0  0  0  0
  110.0825   69.5231   41.0323 H   0  0  0  0  0  0  0  0  0  0  0  0
  112.1318   64.0270   35.2222 H   0  0  0  0  0  0  0  0  0  0  0  0
  108.2197   65.6939   35.9909 H   0  0  0  0  0  0  0  0  0  0  0  0
  109.2395   63.4004   45.0087 H   0  0  0  0  0  0  0  0  0  0  0  0
  108.2125   63.4619   40.8117 H   0  0  0  0  0  0  0  0  0  0  0  0
  109.8239   65.9487   44.5620 H   0  0  0  0  0  0  0  0  0  0  0  0
  112.1878   65.1787   33.0098 H   0  0  0  0  0  0  0  0  0  0  0  0
  108.2759   66.8458   33.7785 H   0  0  0  0  0  0  0  0  0  0  0  0
  109.5673   67.4221   38.4080 H   0  0  0  0  0  0  0  0  0  0  0  0
  111.1728   68.1091   38.8405 H   0  0  0  0  0  0  0  0  0  0  0  0
  111.6513   63.7745   39.7243 H   0  0  0  0  0  0  0  0  0  0  0  0
  109.8837   63.4832   39.6437 H   0  0  0  0  0  0  0  0  0  0  0  0
  111.1561   66.4151   36.9040 H   0  0  0  0  0  0  0  0  0  0  0  0
  112.3067   66.0765   38.2637 H   0  0  0  0  0  0  0  0  0  0  0  0
  110.8418   64.0068   43.4708 H   0  0  0  0  0  0  0  0  0  0  0  0
  110.7119   63.1520   41.8798 H   0  0  0  0  0  0  0  0  0  0  0  0
  109.5005   67.2681   31.7704 H   0  0  0  0  0  0  0  0  0  0  0  0
  1  3  2  0
  1  4  1  0
  2  5  2  0
  2  6  1  0
  3  9  1  0
  4 10  2  0
  5 11  1  0
  6 14  2  0
  7 12  2  0
  7 15  1  0
  8 13  1  0
  8 15  2  0
  9 17  2  0
 10 17  1  0
 11 18  2  0
 12 19  1  0
 13 19  2  0
 14 16  1  0
 14 18  1  0
 15 21  1  0
 16 20  2  0
 16 22  1  0
 17 25  1  0
 18 26  1  0
 19 29  1  0
 20 23  1  0
 20 26  1  0
 21 27  1  0
 21 28  2  0
 22 24  1  0
 23 27  1  0
 24 27  1  0
 25 26  1  0
  1 30  1  0
  2 31  1  0
  3 32  1  0
  4 33  1  0
  5 34  1  0
  6 35  1  0
  7 36  1  0
  8 37  1  0
  9 38  1  0
 10 39  1  0
 11 40  1  0
 12 41  1  0
 13 42  1  0
 22 43  1  0
 22 44  1  0
 23 45  1  0
 23 46  1  0
 24 47  1  0
 24 48  1  0
 25 49  1  0
 25 50  1  0
 29 51  1  0
M  END
>  <s_m_entry_id>  (79) 
21810

>  <s_m_Source_Path>  (79) 
C:\Users\vinicius\Downloads\Ligands_Ecoli

>  <s_m_Source_File>  (79) 
Ligands_Ecoli_o.sdf

>  <i_m_Source_File_Index>  (79) 
4

>  <i_f3d_flags>  (79) 
0

>  <r_lp_tautomer_probability>  (79) 
0.999999999997365

>  <r_epik_Ionization_Penalty>  (79) 
  0.0358

>  <r_epik_State_Penalty>  (79) 
  0.0299

>  <i_epik_Tot_Q>  (79) 
0

>  <s_m_job_name>  (79) 
ligs_ecFabI_ligprep_2

>  <class_value>  (79) 
0

>  <FRED Chemgauss4 score>  (79) 
-12.427487

>  <Name>  (79) 
CHEMBL304367

>  <Set>  (79) 
training

>  <HBA count>  (79) 
3

>  <HBD count>  (79) 
1

>  <ExactMolWt>  (79) 
382.1681279440006

>  <NumRotatableBounds>  (79) 
4

>  <FractionCsp3>  (79) 
0.16

>  <TPSA>  (79) 
45.47

>  <LogP_WildmanCrippen>  (79) 
4.593700000000005

>  <General_Cluster>  (79) 
1

>  <Biological_Cluster>  (79) 
2

>  <Physicochemical_Cluster>  (79) 
2

>  <Structural_Cluster>  (79) 
7

$$$$
CHEMBL849
     RDKit          3D

 23 24  0  0  0  0  0  0  0  0999 V2000
  110.6121   65.7421   35.9537 C   0  0  0  0  0  0  0  0  0  0  0  0
  112.4007   65.7288   38.6835 C   0  0  0  0  0  0  0  0  0  0  0  0
  109.9785   66.3459   34.8676 C   0  0  0  0  0  0  0  0  0  0  0  0
  111.9828   66.1656   39.9405 C   0  0  0  0  0  0  0  0  0  0  0  0
  111.3431   65.0509   33.3516 C   0  0  0  0  0  0  0  0  0  0  0  0
  110.3061   64.4267   39.9873 C   0  0  0  0  0  0  0  0  0  0  0  0
  111.9768   64.4472   34.4377 C   0  0  0  0  0  0  0  0  0  0  0  0
  111.6113   64.7927   35.7387 C   0  0  0  0  0  0  0  0  0  0  0  0
  111.7713   64.6410   38.0783 C   0  0  0  0  0  0  0  0  0  0  0  0
  110.3440   66.0003   33.5666 C   0  0  0  0  0  0  0  0  0  0  0  0
  110.9355   65.5145   40.5925 C   0  0  0  0  0  0  0  0  0  0  0  0
  110.7241   63.9899   38.7302 C   0  0  0  0  0  0  0  0  0  0  0  0
  112.8936   63.5762   34.2217 O   0  0  0  0  0  1  0  0  0  0  0  0
  112.2062   64.2297   36.8322 O   0  0  0  0  0  0  0  0  0  0  0  0
  109.5615   66.7472   32.2277 Cl  0  0  0  0  0  0  0  0  0  0  0  0
  110.4207   66.0547   42.1433 Cl  0  0  0  0  0  0  0  0  0  0  0  0
  109.9281   62.6426   38.0044 Cl  0  0  0  0  0  0  0  0  0  0  0  0
  110.3239   66.0146   36.9797 H   0  0  0  0  0  0  0  0  0  0  0  0
  113.2266   66.2422   38.1694 H   0  0  0  0  0  0  0  0  0  0  0  0
  109.1906   67.0946   35.0371 H   0  0  0  0  0  0  0  0  0  0  0  0
  112.4791   67.0235   40.4177 H   0  0  0  0  0  0  0  0  0  0  0  0
  111.6312   64.7783   32.3256 H   0  0  0  0  0  0  0  0  0  0  0  0
  109.4801   63.9133   40.5014 H   0  0  0  0  0  0  0  0  0  0  0  0
  1  3  2  0
  1  8  1  0
  2  4  2  0
  2  9  1  0
  3 10  1  0
  4 11  1  0
  5  7  1  0
  5 10  2  0
  6 11  2  0
  6 12  1  0
  7  8  2  0
  7 13  1  0
  8 14  1  0
  9 12  2  0
  9 14  1  0
 10 15  1  0
 11 16  1  0
 12 17  1  0
  1 18  1  0
  2 19  1  0
  3 20  1  0
  4 21  1  0
  5 22  1  0
  6 23  1  0
M  CHG  1  13  -1
M  END
>  <s_m_entry_id>  (80) 
21802

>  <s_m_Source_Path>  (80) 
C:\Users\vinicius\Downloads\Ligands_Ecoli

>  <s_m_Source_File>  (80) 
Ligands_Ecoli_o.sdf

>  <i_m_Source_File_Index>  (80) 
1

>  <i_f3d_flags>  (80) 
0

>  <r_lp_tautomer_probability>  (80) 
1

>  <r_epik_Ionization_Penalty>  (80) 
  0.1375

>  <r_epik_State_Penalty>  (80) 
  0.1269

>  <i_epik_Tot_Q>  (80) 
-1

>  <s_m_job_name>  (80) 
ligs_ecFabI_ligprep_2

>  <class_value>  (80) 
1

>  <FRED Chemgauss4 score>  (80) 
-14.722616

>  <Name>  (80) 
CHEMBL849

>  <Set>  (80) 
training

>  <HBA count>  (80) 
2

>  <HBD count>  (80) 
0

>  <ExactMolWt>  (80) 
286.94388605191017

>  <NumRotatableBounds>  (80) 
2

>  <FractionCsp3>  (80) 
0.0

>  <TPSA>  (80) 
32.29

>  <LogP_WildmanCrippen>  (80) 
4.5127000000000015

>  <General_Cluster>  (80) 
2

>  <Biological_Cluster>  (80) 
1

>  <Physicochemical_Cluster>  (80) 
6

>  <Structural_Cluster>  (80) 
1

$$$$
CHEMBL65873
     RDKit          3D

 33 35  0  0  0  0  0  0  0  0999 V2000
  110.4768   69.3738   32.2196 C   0  0  0  0  0  0  0  0  0  0  0  0
  109.1643   69.2032   31.7793 C   0  0  0  0  0  0  0  0  0  0  0  0
  111.1844   68.2900   32.7397 C   0  0  0  0  0  0  0  0  0  0  0  0
  112.3077   66.1467   38.8788 C   0  0  0  0  0  0  0  0  0  0  0  0
  109.2669   66.8651   32.3793 C   0  0  0  0  0  0  0  0  0  0  0  0
  111.5721   65.8798   35.8925 C   0  0  0  0  0  0  0  0  0  0  0  0
  112.3609   66.1004   40.2546 C   0  0  0  0  0  0  0  0  0  0  0  0
  110.3657   64.9672   39.3686 C   0  0  0  0  0  0  0  0  0  0  0  0
  109.7937   64.8691   35.0461 C   0  0  0  0  0  0  0  0  0  0  0  0
  111.1519   65.4904   38.3655 C   0  0  0  0  0  0  0  0  0  0  0  0
  108.5593   67.9489   31.8591 C   0  0  0  0  0  0  0  0  0  0  0  0
  110.5794   67.0357   32.8195 C   0  0  0  0  0  0  0  0  0  0  0  0
  110.8350   65.3838   36.9306 C   0  0  0  0  0  0  0  0  0  0  0  0
  107.1564   67.7671   31.3867 C   0  0  0  0  0  0  0  0  0  0  0  0
  111.3359   65.8771   33.3763 C   0  0  0  0  0  0  0  0  0  0  0  0
  110.9048   65.5463   34.7385 N   0  0  0  0  0  0  0  0  0  0  0  0
  109.7404   64.7639   36.3778 N   0  0  0  0  0  4  0  0  0  0  0  0
  111.0212   65.2682   40.9217 S   0  0  0  0  0  0  0  0  0  0  0  0
  110.9539   70.3630   32.1567 H   0  0  0  0  0  0  0  0  0  0  0  0
  108.6063   70.0578   31.3691 H   0  0  0  0  0  0  0  0  0  0  0  0
  112.2195   68.4245   33.0869 H   0  0  0  0  0  0  0  0  0  0  0  0
  113.0682   66.6332   38.2504 H   0  0  0  0  0  0  0  0  0  0  0  0
  108.7898   65.8760   32.4423 H   0  0  0  0  0  0  0  0  0  0  0  0
  112.5170   66.4381   35.9663 H   0  0  0  0  0  0  0  0  0  0  0  0
  113.1687   66.5455   40.8540 H   0  0  0  0  0  0  0  0  0  0  0  0
  109.4275   64.4206   39.1926 H   0  0  0  0  0  0  0  0  0  0  0  0
  109.0571   64.4708   34.3328 H   0  0  0  0  0  0  0  0  0  0  0  0
  106.4857   67.6802   32.2543 H   0  0  0  0  0  0  0  0  0  0  0  0
  106.8590   68.6342   30.7787 H   0  0  0  0  0  0  0  0  0  0  0  0
  107.0898   66.8528   30.7787 H   0  0  0  0  0  0  0  0  0  0  0  0
  111.1733   65.0023   32.7295 H   0  0  0  0  0  0  0  0  0  0  0  0
  112.4006   66.1509   33.4127 H   0  0  0  0  0  0  0  0  0  0  0  0
  108.9942   64.2912   36.9075 H   0  0  0  0  0  0  0  0  0  0  0  0
  1  2  2  0
  1  3  1  0
  2 11  1  0
  3 12  2  0
  4  7  2  0
  4 10  1  0
  5 11  2  0
  5 12  1  0
  6 13  2  0
  6 16  1  0
  7 18  1  0
  8 10  2  0
  8 18  1  0
  9 16  1  0
  9 17  2  0
 10 13  1  0
 11 14  1  0
 12 15  1  0
 13 17  1  0
 15 16  1  0
  1 19  1  0
  2 20  1  0
  3 21  1  0
  4 22  1  0
  5 23  1  0
  6 24  1  0
  7 25  1  0
  8 26  1  0
  9 27  1  0
 14 28  1  0
 14 29  1  0
 14 30  1  0
 15 31  1  0
 15 32  1  0
 17 33  1  0
M  CHG  1  17   1
M  END
>  <s_m_entry_id>  (81) 
21864

>  <s_m_Source_Path>  (81) 
C:\Users\vinicius\Downloads\Ligands_Ecoli

>  <s_m_Source_File>  (81) 
Ligands_Ecoli_o.sdf

>  <i_m_Source_File_Index>  (81) 
36

>  <i_f3d_flags>  (81) 
0

>  <r_lp_tautomer_probability>  (81) 
1

>  <r_epik_Ionization_Penalty>  (81) 
  0.8997

>  <r_epik_State_Penalty>  (81) 
  0.9395

>  <i_epik_Tot_Q>  (81) 
1

>  <s_m_job_name>  (81) 
ligs_ecFabI_ligprep_2

>  <class_value>  (81) 
0

>  <FRED Chemgauss4 score>  (81) 
-16.026173

>  <Name>  (81) 
CHEMBL65873

>  <Set>  (81) 
training

>  <HBA count>  (81) 
2

>  <HBD count>  (81) 
0

>  <ExactMolWt>  (81) 
255.09504590008999

>  <NumRotatableBounds>  (81) 
4

>  <FractionCsp3>  (81) 
0.13333333333333333

>  <TPSA>  (81) 
19.07

>  <LogP_WildmanCrippen>  (81) 
3.3874200000000023

>  <General_Cluster>  (81) 
2

>  <Biological_Cluster>  (81) 
2

>  <Physicochemical_Cluster>  (81) 
6

>  <Structural_Cluster>  (81) 
1

$$$$
CHEMBL567710
     RDKit          3D

 51 54  0  0  0  0  0  0  0  0999 V2000
  107.6146   69.4474   30.9211 C   0  0  0  0  0  0  0  0  0  0  0  0
  106.7733   68.6212   31.6707 C   0  0  0  0  0  0  0  0  0  0  0  0
  108.9870   69.5219   31.1958 C   0  0  0  0  0  0  0  0  0  0  0  0
  107.2695   67.8409   32.7192 C   0  0  0  0  0  0  0  0  0  0  0  0
  109.7819   66.0106   39.7387 C   0  0  0  0  0  0  0  0  0  0  0  0
  111.9600   65.5472   40.5052 C   0  0  0  0  0  0  0  0  0  0  0  0
  109.5077   68.7455   32.2459 C   0  0  0  0  0  0  0  0  0  0  0  0
  111.0539   65.5263   39.4728 C   0  0  0  0  0  0  0  0  0  0  0  0
  109.4271   66.5032   41.0124 C   0  0  0  0  0  0  0  0  0  0  0  0
  110.7900   68.5438   32.8212 C   0  0  0  0  0  0  0  0  0  0  0  0
  108.6375   67.9358   32.9685 C   0  0  0  0  0  0  0  0  0  0  0  0
  110.6189   67.6372   33.8417 C   0  0  0  0  0  0  0  0  0  0  0  0
  110.4285   66.5138   41.9848 C   0  0  0  0  0  0  0  0  0  0  0  0
  109.3104   67.6713   43.9637 C   0  0  0  0  0  0  0  0  0  0  0  0
  111.4097   65.0129   38.1636 C   0  0  0  0  0  0  0  0  0  0  0  0
  110.7515   65.2813   37.0105 C   0  0  0  0  0  0  0  0  0  0  0  0
  111.1977   64.6635   35.7270 C   0  0  0  0  0  0  0  0  0  0  0  0
  108.0033   66.9676   41.1501 C   0  0  0  0  0  0  0  0  0  0  0  0
  108.1183   68.1836   43.2119 C   0  0  0  0  0  0  0  0  0  0  0  0
  112.0565   69.1785   32.4089 C   0  0  0  0  0  0  0  0  0  0  0  0
  111.9964   65.0259   33.4233 C   0  0  0  0  0  0  0  0  0  0  0  0
  111.5599   67.0086   34.8283 C   0  0  0  0  0  0  0  0  0  0  0  0
  111.6758   66.0206   41.7358 N   0  0  0  0  0  0  0  0  0  0  0  0
  110.2980   66.9887   43.3071 N   0  0  0  0  0  0  0  0  0  0  0  0
  107.4829   67.0981   42.4983 N   0  0  0  0  0  0  0  0  0  0  0  0
  111.5768   65.5513   34.7161 N   0  0  0  0  0  0  0  0  0  0  0  0
  109.4238   67.9354   45.1666 O   0  0  0  0  0  0  0  0  0  0  0  0
  111.1918   63.4379   35.6033 O   0  0  0  0  0  0  0  0  0  0  0  0
  109.3167   67.2624   33.9393 O   0  0  0  0  0  0  0  0  0  0  0  0
  107.1931   70.0490   30.1023 H   0  0  0  0  0  0  0  0  0  0  0  0
  105.7003   68.5840   31.4313 H   0  0  0  0  0  0  0  0  0  0  0  0
  109.6435   70.1747   30.6017 H   0  0  0  0  0  0  0  0  0  0  0  0
  106.6156   67.1873   33.3152 H   0  0  0  0  0  0  0  0  0  0  0  0
  109.0300   66.0107   38.9358 H   0  0  0  0  0  0  0  0  0  0  0  0
  112.9713   65.1570   40.3183 H   0  0  0  0  0  0  0  0  0  0  0  0
  112.2862   64.3511   38.1021 H   0  0  0  0  0  0  0  0  0  0  0  0
  109.8841   65.9577   37.0200 H   0  0  0  0  0  0  0  0  0  0  0  0
  107.9271   67.9532   40.6676 H   0  0  0  0  0  0  0  0  0  0  0  0
  107.3973   66.1766   40.6841 H   0  0  0  0  0  0  0  0  0  0  0  0
  107.4013   68.6232   43.9209 H   0  0  0  0  0  0  0  0  0  0  0  0
  108.4453   68.9481   42.4918 H   0  0  0  0  0  0  0  0  0  0  0  0
  112.6303   69.4661   33.3022 H   0  0  0  0  0  0  0  0  0  0  0  0
  112.6441   68.4684   31.8085 H   0  0  0  0  0  0  0  0  0  0  0  0
  111.8393   70.0743   31.8085 H   0  0  0  0  0  0  0  0  0  0  0  0
  112.6762   64.1748   33.5765 H   0  0  0  0  0  0  0  0  0  0  0  0
  111.1131   64.6927   32.8587 H   0  0  0  0  0  0  0  0  0  0  0  0
  112.5167   65.8136   32.8587 H   0  0  0  0  0  0  0  0  0  0  0  0
  112.5748   67.3908   34.6444 H   0  0  0  0  0  0  0  0  0  0  0  0
  111.2147   67.2677   35.8401 H   0  0  0  0  0  0  0  0  0  0  0  0
  111.1137   66.7783   43.8998 H   0  0  0  0  0  0  0  0  0  0  0  0
  106.4699   67.2779   42.4495 H   0  0  0  0  0  0  0  0  0  0  0  0
  1  2  2  0
  1  3  1  0
  2  4  1  0
  3  7  2  0
  4 11  2  0
  5  8  2  0
  5  9  1  0
  6  8  1  0
  6 23  2  0
  7 10  1  0
  7 11  1  0
  8 15  1  0
  9 13  2  0
  9 18  1  0
 10 12  2  0
 10 20  1  0
 11 29  1  0
 12 22  1  0
 12 29  1  0
 13 23  1  0
 13 24  1  0
 14 19  1  0
 14 24  1  0
 14 27  2  0
 15 16  2  0
 16 17  1  0
 17 26  1  0
 17 28  2  0
 18 25  1  0
 19 25  1  0
 21 26  1  0
 22 26  1  0
  1 30  1  0
  2 31  1  0
  3 32  1  0
  4 33  1  0
  5 34  1  0
  6 35  1  0
 15 36  1  0
 16 37  1  0
 18 38  1  0
 18 39  1  0
 19 40  1  0
 19 41  1  0
 20 42  1  0
 20 43  1  0
 20 44  1  0
 21 45  1  0
 21 46  1  0
 21 47  1  0
 22 48  1  0
 22 49  1  0
 24 50  1  0
 25 51  1  0
M  END
>  <s_m_entry_id>  (82) 
21975

>  <s_m_Source_Path>  (82) 
C:\Users\vinicius\Downloads\Ligands_Ecoli

>  <s_m_Source_File>  (82) 
Ligands_Ecoli_o.sdf

>  <i_m_Source_File_Index>  (82) 
89

>  <i_f3d_flags>  (82) 
0

>  <r_epik_Ionization_Penalty>  (82) 
  0.4697

>  <r_epik_State_Penalty>  (82) 
  0.4736

>  <i_epik_Tot_Q>  (82) 
0

>  <s_m_job_name>  (82) 
ligs_ecFabI_ligprep_2

>  <class_value>  (82) 
1

>  <FRED Chemgauss4 score>  (82) 
-15.217536

>  <Name>  (82) 
CHEMBL567710

>  <Set>  (82) 
training

>  <HBA count>  (82) 
5

>  <HBD count>  (82) 
2

>  <ExactMolWt>  (82) 
390.16919056400064

>  <NumRotatableBounds>  (82) 
6

>  <FractionCsp3>  (82) 
0.22727272727272727

>  <TPSA>  (82) 
87.47000000000001

>  <LogP_WildmanCrippen>  (82) 
2.8497200000000014

>  <General_Cluster>  (82) 
1

>  <Biological_Cluster>  (82) 
1

>  <Physicochemical_Cluster>  (82) 
3

>  <Structural_Cluster>  (82) 
7

$$$$
CHEMBL72947
     RDKit          3D

 63 67  0  0  0  0  0  0  0  0999 V2000
  108.7550   69.1126   43.1912 C   0  0  0  0  0  0  0  0  0  0  0  0
  108.7114   68.1168   44.1647 C   0  0  0  0  0  0  0  0  0  0  0  0
  109.3617   68.8771   41.9524 C   0  0  0  0  0  0  0  0  0  0  0  0
  109.7589   65.3730   36.3577 C   0  0  0  0  0  0  0  0  0  0  0  0
  111.8212   64.8753   35.2016 C   0  0  0  0  0  0  0  0  0  0  0  0
  109.2015   65.8338   35.1650 C   0  0  0  0  0  0  0  0  0  0  0  0
  111.2637   65.3361   34.0089 C   0  0  0  0  0  0  0  0  0  0  0  0
  108.7757   63.1337   44.1523 C   0  0  0  0  0  0  0  0  0  0  0  0
  108.7831   63.0702   41.7371 C   0  0  0  0  0  0  0  0  0  0  0  0
  109.2708   66.8572   43.9326 C   0  0  0  0  0  0  0  0  0  0  0  0
  107.5897   62.3996   44.1679 C   0  0  0  0  0  0  0  0  0  0  0  0
  107.5972   62.3360   41.7528 C   0  0  0  0  0  0  0  0  0  0  0  0
  109.9342   67.6153   41.6941 C   0  0  0  0  0  0  0  0  0  0  0  0
  111.0688   64.8939   36.3760 C   0  0  0  0  0  0  0  0  0  0  0  0
  110.6121   67.0377   40.5862 C   0  0  0  0  0  0  0  0  0  0  0  0
  109.9539   65.8153   33.9906 C   0  0  0  0  0  0  0  0  0  0  0  0
  109.3723   63.4690   42.9369 C   0  0  0  0  0  0  0  0  0  0  0  0
  109.8748   66.6337   42.6900 C   0  0  0  0  0  0  0  0  0  0  0  0
  107.0005   62.0007   42.9682 C   0  0  0  0  0  0  0  0  0  0  0  0
  110.9381   65.7411   40.9272 C   0  0  0  0  0  0  0  0  0  0  0  0
  111.6568   64.4078   37.6317 C   0  0  0  0  0  0  0  0  0  0  0  0
  110.9552   67.5992   39.2495 C   0  0  0  0  0  0  0  0  0  0  0  0
  111.6656   64.7610   40.0807 C   0  0  0  0  0  0  0  0  0  0  0  0
  112.0533   66.7468   38.5877 C   0  0  0  0  0  0  0  0  0  0  0  0
  109.1664   69.8107   31.0343 C   0  0  0  0  0  0  0  0  0  0  0  0
  109.3570   66.3070   32.7152 C   0  0  0  0  0  0  0  0  0  0  0  0
  110.6521   64.2605   42.9198 C   0  0  0  0  0  0  0  0  0  0  0  0
  108.9539   68.3162   31.2153 C   0  0  0  0  0  0  0  0  0  0  0  0
  109.6018   67.8100   32.5040 C   0  0  0  0  0  0  0  0  0  0  0  0
  110.4945   65.5046   42.1963 N   0  0  0  0  0  0  0  0  0  0  0  0
  111.7529   65.2976   38.7064 N   0  0  0  0  0  0  0  0  0  0  0  0
  112.0144   63.2307   37.6475 O   0  0  0  0  0  0  0  0  0  0  0  0
  105.8440   61.2832   42.9837 O   0  0  0  0  0  0  0  0  0  0  0  0
  108.3072   70.0956   43.3989 H   0  0  0  0  0  0  0  0  0  0  0  0
  108.2291   68.3252   45.1311 H   0  0  0  0  0  0  0  0  0  0  0  0
  109.3915   69.6681   41.1885 H   0  0  0  0  0  0  0  0  0  0  0  0
  109.1655   65.3874   37.2838 H   0  0  0  0  0  0  0  0  0  0  0  0
  112.8541   64.4973   35.2160 H   0  0  0  0  0  0  0  0  0  0  0  0
  108.1686   66.2118   35.1505 H   0  0  0  0  0  0  0  0  0  0  0  0
  111.8570   65.3216   33.0827 H   0  0  0  0  0  0  0  0  0  0  0  0
  109.2404   63.4482   45.0984 H   0  0  0  0  0  0  0  0  0  0  0  0
  109.2536   63.3347   40.7786 H   0  0  0  0  0  0  0  0  0  0  0  0
  109.2375   66.0693   44.6995 H   0  0  0  0  0  0  0  0  0  0  0  0
  107.1191   62.1353   45.1264 H   0  0  0  0  0  0  0  0  0  0  0  0
  107.1325   62.0214   40.8067 H   0  0  0  0  0  0  0  0  0  0  0  0
  110.0586   67.5972   38.6123 H   0  0  0  0  0  0  0  0  0  0  0  0
  111.3220   68.6288   39.3732 H   0  0  0  0  0  0  0  0  0  0  0  0
  112.6776   64.6040   40.4821 H   0  0  0  0  0  0  0  0  0  0  0  0
  111.1311   63.7996   40.0753 H   0  0  0  0  0  0  0  0  0  0  0  0
  112.1211   67.0131   37.5226 H   0  0  0  0  0  0  0  0  0  0  0  0
  113.0061   66.9480   39.0993 H   0  0  0  0  0  0  0  0  0  0  0  0
  109.2350   70.2934   32.0204 H   0  0  0  0  0  0  0  0  0  0  0  0
  110.0982   69.9836   30.4758 H   0  0  0  0  0  0  0  0  0  0  0  0
  108.3198   70.2365   30.4758 H   0  0  0  0  0  0  0  0  0  0  0  0
  109.8054   65.7534   31.8771 H   0  0  0  0  0  0  0  0  0  0  0  0
  108.2702   66.1444   32.7649 H   0  0  0  0  0  0  0  0  0  0  0  0
  110.9486   64.4838   43.9553 H   0  0  0  0  0  0  0  0  0  0  0  0
  111.4230   63.6610   42.4135 H   0  0  0  0  0  0  0  0  0  0  0  0
  107.8739   68.1108   31.2537 H   0  0  0  0  0  0  0  0  0  0  0  0
  109.4217   67.7959   30.3665 H   0  0  0  0  0  0  0  0  0  0  0  0
  109.1788   68.3626   33.3559 H   0  0  0  0  0  0  0  0  0  0  0  0
  110.6871   67.9717   32.4269 H   0  0  0  0  0  0  0  0  0  0  0  0
  105.4257   61.0000   42.1323 H   0  0  0  0  0  0  0  0  0  0  0  0
  1  2  2  0
  1  3  1  0
  2 10  1  0
  3 13  2  0
  4  6  2  0
  4 14  1  0
  5  7  1  0
  5 14  2  0
  6 16  1  0
  7 16  2  0
  8 11  2  0
  8 17  1  0
  9 12  1  0
  9 17  2  0
 10 18  2  0
 11 19  1  0
 12 19  2  0
 13 15  1  0
 13 18  1  0
 14 21  1  0
 15 20  2  0
 15 22  1  0
 16 26  1  0
 17 27  1  0
 18 30  1  0
 19 33  1  0
 20 23  1  0
 20 30  1  0
 21 31  1  0
 21 32  2  0
 22 24  1  0
 23 31  1  0
 24 31  1  0
 25 28  1  0
 26 29  1  0
 27 30  1  0
 28 29  1  0
  1 34  1  0
  2 35  1  0
  3 36  1  0
  4 37  1  0
  5 38  1  0
  6 39  1  0
  7 40  1  0
  8 41  1  0
  9 42  1  0
 10 43  1  0
 11 44  1  0
 12 45  1  0
 22 46  1  0
 22 47  1  0
 23 48  1  0
 23 49  1  0
 24 50  1  0
 24 51  1  0
 25 52  1  0
 25 53  1  0
 25 54  1  0
 26 55  1  0
 26 56  1  0
 27 57  1  0
 27 58  1  0
 28 59  1  0
 28 60  1  0
 29 61  1  0
 29 62  1  0
 33 63  1  0
M  END
>  <s_m_entry_id>  (83) 
21852

>  <s_m_Source_Path>  (83) 
C:\Users\vinicius\Downloads\Ligands_Ecoli

>  <s_m_Source_File>  (83) 
Ligands_Ecoli_o.sdf

>  <i_m_Source_File_Index>  (83) 
29

>  <i_f3d_flags>  (83) 
0

>  <r_lp_tautomer_probability>  (83) 
0.999999999997365

>  <r_epik_Ionization_Penalty>  (83) 
  0.0024

>  <r_epik_State_Penalty>  (83) 
  0.0016

>  <i_epik_Tot_Q>  (83) 
0

>  <s_m_job_name>  (83) 
ligs_ecFabI_ligprep_2

>  <class_value>  (83) 
0

>  <FRED Chemgauss4 score>  (83) 
-15.975418

>  <Name>  (83) 
CHEMBL72947

>  <Set>  (83) 
training

>  <HBA count>  (83) 
3

>  <HBD count>  (83) 
1

>  <ExactMolWt>  (83) 
438.23072820000084

>  <NumRotatableBounds>  (83) 
8

>  <FractionCsp3>  (83) 
0.27586206896551724

>  <TPSA>  (83) 
45.47

>  <LogP_WildmanCrippen>  (83) 
5.936300000000006

>  <General_Cluster>  (83) 
1

>  <Biological_Cluster>  (83) 
2

>  <Physicochemical_Cluster>  (83) 
2

>  <Structural_Cluster>  (83) 
7

$$$$
CHEMBL2178296
     RDKit          3D

 41 42  0  0  0  0  0  0  0  0999 V2000
  108.9886   66.2889   33.8513 C   0  0  0  0  0  0  0  0  0  0  0  0
  108.9597   65.4119   34.9355 C   0  0  0  0  0  0  0  0  0  0  0  0
  110.8063   65.6264   37.6681 C   0  0  0  0  0  0  0  0  0  0  0  0
  111.1775   66.1329   38.9136 C   0  0  0  0  0  0  0  0  0  0  0  0
  111.2702   65.6423   33.3891 C   0  0  0  0  0  0  0  0  0  0  0  0
  110.6969   63.9930   39.9270 C   0  0  0  0  0  0  0  0  0  0  0  0
  110.1439   66.4041   33.0780 C   0  0  0  0  0  0  0  0  0  0  0  0
  111.2413   64.7653   34.4733 C   0  0  0  0  0  0  0  0  0  0  0  0
  110.0860   64.6501   35.2466 C   0  0  0  0  0  0  0  0  0  0  0  0
  110.3803   64.3032   37.5521 C   0  0  0  0  0  0  0  0  0  0  0  0
  110.3257   63.4865   38.6815 C   0  0  0  0  0  0  0  0  0  0  0  0
  111.1229   65.3162   40.0431 C   0  0  0  0  0  0  0  0  0  0  0  0
  110.6493   68.7383   32.3147 C   0  0  0  0  0  0  0  0  0  0  0  0
  110.1743   67.3426   31.9192 C   0  0  0  0  0  0  0  0  0  0  0  0
  108.9643   65.6670   42.3914 C   0  0  0  0  0  0  0  0  0  0  0  0
  108.0843   66.1907   43.5117 C   0  0  0  0  0  0  0  0  0  0  0  0
  110.1113   66.5669   42.2037 N   0  0  0  0  0  0  0  0  0  0  0  0
  112.2863   64.0724   34.7452 O   0  0  0  0  0  1  0  0  0  0  0  0
  112.0108   64.8445   42.4512 O   0  0  0  0  0  0  0  0  0  0  0  0
  112.4985   67.0645   41.3751 O   0  0  0  0  0  0  0  0  0  0  0  0
  108.8288   66.2194   44.7228 O   0  0  0  0  0  0  0  0  0  0  0  0
  110.0120   63.8038   36.3168 O   0  0  0  0  0  0  0  0  0  0  0  0
  109.9170   62.2146   38.5770 F   0  0  0  0  0  0  0  0  0  0  0  0
  111.5874   65.9505   41.6020 S   0  0  0  0  0  6  0  0  0  0  0  0
  108.1004   66.8897   33.6060 H   0  0  0  0  0  0  0  0  0  0  0  0
  108.0487   65.3210   35.5452 H   0  0  0  0  0  0  0  0  0  0  0  0
  110.8495   66.2704   36.7774 H   0  0  0  0  0  0  0  0  0  0  0  0
  111.5133   67.1764   39.0051 H   0  0  0  0  0  0  0  0  0  0  0  0
  112.1812   65.7332   32.7794 H   0  0  0  0  0  0  0  0  0  0  0  0
  110.6537   63.3490   40.8177 H   0  0  0  0  0  0  0  0  0  0  0  0
  110.6768   68.8192   33.4114 H   0  0  0  0  0  0  0  0  0  0  0  0
  111.6569   68.9114   31.9089 H   0  0  0  0  0  0  0  0  0  0  0  0
  109.9564   69.4901   31.9089 H   0  0  0  0  0  0  0  0  0  0  0  0
  110.8566   66.9400   31.1561 H   0  0  0  0  0  0  0  0  0  0  0  0
  109.1481   67.4337   31.5337 H   0  0  0  0  0  0  0  0  0  0  0  0
  109.3266   64.6612   42.6502 H   0  0  0  0  0  0  0  0  0  0  0  0
  108.3808   65.6198   41.4601 H   0  0  0  0  0  0  0  0  0  0  0  0
  107.7437   67.2074   43.2661 H   0  0  0  0  0  0  0  0  0  0  0  0
  107.2118   65.5318   43.6322 H   0  0  0  0  0  0  0  0  0  0  0  0
  109.8081   67.3038   41.5511 H   0  0  0  0  0  0  0  0  0  0  0  0
  108.2072   66.1954   45.4929 H   0  0  0  0  0  0  0  0  0  0  0  0
  1  2  2  0
  1  7  1  0
  2  9  1  0
  3  4  2  0
  3 10  1  0
  4 12  1  0
  5  7  2  0
  5  8  1  0
  6 11  1  0
  6 12  2  0
  7 14  1  0
  8  9  2  0
  8 18  1  0
  9 22  1  0
 10 11  2  0
 10 22  1  0
 11 23  1  0
 12 24  1  0
 13 14  1  0
 15 16  1  0
 15 17  1  0
 16 21  1  0
 17 24  1  0
 19 24  2  0
 20 24  2  0
  1 25  1  0
  2 26  1  0
  3 27  1  0
  4 28  1  0
  5 29  1  0
  6 30  1  0
 13 31  1  0
 13 32  1  0
 13 33  1  0
 14 34  1  0
 14 35  1  0
 15 36  1  0
 15 37  1  0
 16 38  1  0
 16 39  1  0
 17 40  1  0
 21 41  1  0
M  CHG  1  18  -1
M  END
>  <s_m_entry_id>  (84) 
22049

>  <s_m_Source_Path>  (84) 
C:\Users\vinicius\Downloads\Ligands_Ecoli

>  <s_m_Source_File>  (84) 
Ligands_Ecoli_o.sdf

>  <i_m_Source_File_Index>  (84) 
130

>  <i_f3d_flags>  (84) 
0

>  <r_lp_tautomer_probability>  (84) 
1

>  <r_epik_Ionization_Penalty>  (84) 
  1.3117

>  <r_epik_State_Penalty>  (84) 
  1.3851

>  <i_epik_Tot_Q>  (84) 
-1

>  <s_m_job_name>  (84) 
ligs_ecFabI_ligprep_2

>  <class_value>  (84) 
0

>  <FRED Chemgauss4 score>  (84) 
-16.074604

>  <Name>  (84) 
CHEMBL2178296

>  <Set>  (84) 
training

>  <HBA count>  (84) 
5

>  <HBD count>  (84) 
2

>  <ExactMolWt>  (84) 
354.08169544391046

>  <NumRotatableBounds>  (84) 
9

>  <FractionCsp3>  (84) 
0.25

>  <TPSA>  (84) 
98.69

>  <LogP_WildmanCrippen>  (84) 
1.524599999999999

>  <General_Cluster>  (84) 
5

>  <Biological_Cluster>  (84) 
2

>  <Physicochemical_Cluster>  (84) 
8

>  <Structural_Cluster>  (84) 
6

$$$$
CHEMBL568359
     RDKit          3D

 72 75  0  0  0  0  0  0  0  0999 V2000
  110.0810   68.5430   42.3637 C   0  0  0  0  0  0  0  0  0  0  0  0
  109.7479   67.2851   41.8614 C   0  0  0  0  0  0  0  0  0  0  0  0
  109.1416   69.2753   43.0897 C   0  0  0  0  0  0  0  0  0  0  0  0
  109.9711   64.8593   37.0175 C   0  0  0  0  0  0  0  0  0  0  0  0
  112.3194   64.5196   37.1173 C   0  0  0  0  0  0  0  0  0  0  0  0
  111.0977   64.5420   37.7662 C   0  0  0  0  0  0  0  0  0  0  0  0
  110.1005   65.1604   35.6611 C   0  0  0  0  0  0  0  0  0  0  0  0
  108.4754   66.7595   42.0850 C   0  0  0  0  0  0  0  0  0  0  0  0
  107.8691   68.7497   43.3132 C   0  0  0  0  0  0  0  0  0  0  0  0
  107.5359   67.4918   42.8109 C   0  0  0  0  0  0  0  0  0  0  0  0
  111.3735   65.1168   35.1000 C   0  0  0  0  0  0  0  0  0  0  0  0
  110.5098   65.8534   32.9043 C   0  0  0  0  0  0  0  0  0  0  0  0
  110.9945   64.2302   39.1800 C   0  0  0  0  0  0  0  0  0  0  0  0
  109.8647   63.8390   39.8155 C   0  0  0  0  0  0  0  0  0  0  0  0
  109.8797   63.5782   41.2852 C   0  0  0  0  0  0  0  0  0  0  0  0
  108.9061   65.4253   34.7938 C   0  0  0  0  0  0  0  0  0  0  0  0
  108.0241   66.3850   32.6535 C   0  0  0  0  0  0  0  0  0  0  0  0
  109.4920   67.8067   34.1359 C   0  0  0  0  0  0  0  0  0  0  0  0
  108.0378   67.5269   31.6310 C   0  0  0  0  0  0  0  0  0  0  0  0
  109.4907   68.8587   33.0237 C   0  0  0  0  0  0  0  0  0  0  0  0
  109.2373   66.3703   33.6138 C   0  0  0  0  0  0  0  0  0  0  0  0
  102.8637   66.9038   41.5010 C   0  0  0  0  0  0  0  0  0  0  0  0
  108.1916   69.9034   31.2876 C   0  0  0  0  0  0  0  0  0  0  0  0
  108.9997   64.1904   43.5049 C   0  0  0  0  0  0  0  0  0  0  0  0
  107.3830   70.7516   44.5014 C   0  0  0  0  0  0  0  0  0  0  0  0
  108.1356   65.4040   41.5362 C   0  0  0  0  0  0  0  0  0  0  0  0
  103.9782   66.6417   42.4980 C   0  0  0  0  0  0  0  0  0  0  0  0
  105.2889   67.2781   42.0617 C   0  0  0  0  0  0  0  0  0  0  0  0
  112.4835   64.7907   35.8032 N   0  0  0  0  0  0  0  0  0  0  0  0
  111.5181   65.3869   33.7280 N   0  0  0  0  0  0  0  0  0  0  0  0
  108.2283   68.8282   32.2788 N   0  0  0  0  0  0  0  0  0  0  0  0
  109.0210   64.3647   42.0584 N   0  0  0  0  0  0  0  0  0  0  0  0
  110.6642   65.9234   31.6844 O   0  0  0  0  0  0  0  0  0  0  0  0
  110.6398   62.7262   41.7477 O   0  0  0  0  0  0  0  0  0  0  0  0
  106.9613   69.4756   44.0239 O   0  0  0  0  0  0  0  0  0  0  0  0
  106.2906   66.9818   43.0318 O   0  0  0  0  0  0  0  0  0  0  0  0
  111.0845   68.9575   42.1873 H   0  0  0  0  0  0  0  0  0  0  0  0
  110.4887   66.7076   41.2890 H   0  0  0  0  0  0  0  0  0  0  0  0
  109.4044   70.2672   43.4859 H   0  0  0  0  0  0  0  0  0  0  0  0
  108.9793   64.8731   37.4930 H   0  0  0  0  0  0  0  0  0  0  0  0
  113.2124   64.2655   37.7072 H   0  0  0  0  0  0  0  0  0  0  0  0
  111.9091   64.3190   39.7847 H   0  0  0  0  0  0  0  0  0  0  0  0
  108.9319   63.7128   39.2464 H   0  0  0  0  0  0  0  0  0  0  0  0
  108.5425   64.4688   34.3901 H   0  0  0  0  0  0  0  0  0  0  0  0
  108.1410   65.9154   35.4139 H   0  0  0  0  0  0  0  0  0  0  0  0
  107.1090   66.4751   33.2571 H   0  0  0  0  0  0  0  0  0  0  0  0
  108.0687   65.4486   32.0780 H   0  0  0  0  0  0  0  0  0  0  0  0
  110.4708   67.8285   34.6374 H   0  0  0  0  0  0  0  0  0  0  0  0
  108.6710   68.0560   34.8243 H   0  0  0  0  0  0  0  0  0  0  0  0
  108.8592   67.3588   30.9189 H   0  0  0  0  0  0  0  0  0  0  0  0
  107.0667   67.5383   31.1144 H   0  0  0  0  0  0  0  0  0  0  0  0
  109.6219   69.8554   33.4701 H   0  0  0  0  0  0  0  0  0  0  0  0
  110.3149   68.6383   32.3293 H   0  0  0  0  0  0  0  0  0  0  0  0
  101.9315   67.1230   42.0423 H   0  0  0  0  0  0  0  0  0  0  0  0
  103.1316   67.7634   40.8691 H   0  0  0  0  0  0  0  0  0  0  0  0
  102.7204   66.0149   40.8691 H   0  0  0  0  0  0  0  0  0  0  0  0
  108.1584   70.8752   31.8019 H   0  0  0  0  0  0  0  0  0  0  0  0
  109.0920   69.8524   30.6578 H   0  0  0  0  0  0  0  0  0  0  0  0
  107.2968   69.7911   30.6578 H   0  0  0  0  0  0  0  0  0  0  0  0
  109.1192   65.1685   43.9939 H   0  0  0  0  0  0  0  0  0  0  0  0
  108.0404   63.7445   43.8064 H   0  0  0  0  0  0  0  0  0  0  0  0
  109.8234   63.5266   43.8064 H   0  0  0  0  0  0  0  0  0  0  0  0
  107.3825   70.7500   45.6014 H   0  0  0  0  0  0  0  0  0  0  0  0
  108.3987   70.9627   44.1355 H   0  0  0  0  0  0  0  0  0  0  0  0
  106.6931   71.5263   44.1355 H   0  0  0  0  0  0  0  0  0  0  0  0
  107.0992   65.1589   41.8114 H   0  0  0  0  0  0  0  0  0  0  0  0
  108.2593   65.4387   40.4437 H   0  0  0  0  0  0  0  0  0  0  0  0
  103.6879   67.0581   43.4739 H   0  0  0  0  0  0  0  0  0  0  0  0
  104.1310   65.5542   42.5613 H   0  0  0  0  0  0  0  0  0  0  0  0
  105.5894   66.8721   41.0845 H   0  0  0  0  0  0  0  0  0  0  0  0
  105.1640   68.3676   41.9752 H   0  0  0  0  0  0  0  0  0  0  0  0
  112.4432   65.2255   33.3050 H   0  0  0  0  0  0  0  0  0  0  0  0
  1  2  2  0
  1  3  1  0
  2  8  1  0
  3  9  2  0
  4  6  2  0
  4  7  1  0
  5  6  1  0
  5 29  2  0
  6 13  1  0
  7 11  2  0
  7 16  1  0
  8 10  2  0
  8 26  1  0
  9 10  1  0
  9 35  1  0
 10 36  1  0
 11 29  1  0
 11 30  1  0
 12 21  1  0
 12 30  1  0
 12 33  2  0
 13 14  2  0
 14 15  1  0
 15 32  1  0
 15 34  2  0
 16 21  1  0
 17 19  1  0
 17 21  1  0
 18 20  1  0
 18 21  1  0
 19 31  1  0
 20 31  1  0
 22 27  1  0
 23 31  1  0
 24 32  1  0
 25 35  1  0
 26 32  1  0
 27 28  1  0
 28 36  1  0
  1 37  1  0
  2 38  1  0
  3 39  1  0
  4 40  1  0
  5 41  1  0
 13 42  1  0
 14 43  1  0
 16 44  1  0
 16 45  1  0
 17 46  1  0
 17 47  1  0
 18 48  1  0
 18 49  1  0
 19 50  1  0
 19 51  1  0
 20 52  1  0
 20 53  1  0
 22 54  1  0
 22 55  1  0
 22 56  1  0
 23 57  1  0
 23 58  1  0
 23 59  1  0
 24 60  1  0
 24 61  1  0
 24 62  1  0
 25 63  1  0
 25 64  1  0
 25 65  1  0
 26 66  1  0
 26 67  1  0
 27 68  1  0
 27 69  1  0
 28 70  1  0
 28 71  1  0
 30 72  1  0
M  END
>  <s_m_entry_id>  (85) 
21992

>  <s_m_Source_Path>  (85) 
C:\Users\vinicius\Downloads\Ligands_Ecoli

>  <s_m_Source_File>  (85) 
Ligands_Ecoli_o.sdf

>  <i_m_Source_File_Index>  (85) 
97

>  <i_f3d_flags>  (85) 
0

>  <r_lp_tautomer_probability>  (85) 
1

>  <r_epik_Ionization_Penalty>  (85) 
  2.1744

>  <r_epik_State_Penalty>  (85) 
  2.3158

>  <i_epik_Tot_Q>  (85) 
0

>  <s_m_job_name>  (85) 
ligs_ecFabI_ligprep_2

>  <class_value>  (85) 
1

>  <FRED Chemgauss4 score>  (85) 
-12.413254

>  <Name>  (85) 
CHEMBL568359

>  <Set>  (85) 
training

>  <HBA count>  (85) 
6

>  <HBD count>  (85) 
1

>  <ExactMolWt>  (85) 
492.273655632001

>  <NumRotatableBounds>  (85) 
12

>  <FractionCsp3>  (85) 
0.4642857142857143

>  <TPSA>  (85) 
84.00000000000001

>  <LogP_WildmanCrippen>  (85) 
3.7574000000000023

>  <General_Cluster>  (85) 
4

>  <Biological_Cluster>  (85) 
1

>  <Physicochemical_Cluster>  (85) 
4

>  <Structural_Cluster>  (85) 
5

$$$$
CHEMBL237447
     RDKit          3D

 37 39  0  0  0  0  0  0  0  0999 V2000
  107.5272   62.4983   44.5522 C   0  0  0  0  0  0  0  0  0  0  0  0
  107.0104   63.7799   44.7070 C   0  0  0  0  0  0  0  0  0  0  0  0
  111.2549   68.4492   32.7393 C   0  0  0  0  0  0  0  0  0  0  0  0
  111.0608   67.4736   33.7171 C   0  0  0  0  0  0  0  0  0  0  0  0
  108.2896   62.1709   43.4272 C   0  0  0  0  0  0  0  0  0  0  0  0
  110.1771   68.8929   31.9730 C   0  0  0  0  0  0  0  0  0  0  0  0
  107.2404   64.7665   43.7449 C   0  0  0  0  0  0  0  0  0  0  0  0
  108.7111   67.3850   33.1622 C   0  0  0  0  0  0  0  0  0  0  0  0
  109.7889   66.9414   33.9285 C   0  0  0  0  0  0  0  0  0  0  0  0
  108.5371   63.1491   42.4398 C   0  0  0  0  0  0  0  0  0  0  0  0
  108.9052   68.3607   32.1844 C   0  0  0  0  0  0  0  0  0  0  0  0
  108.0070   64.4307   42.6173 C   0  0  0  0  0  0  0  0  0  0  0  0
  109.2947   64.0914   40.5945 C   0  0  0  0  0  0  0  0  0  0  0  0
  109.5875   65.9255   34.9468 C   0  0  0  0  0  0  0  0  0  0  0  0
  110.6769   63.4402   38.5969 C   0  0  0  0  0  0  0  0  0  0  0  0
  111.2064   64.0862   37.3350 C   0  0  0  0  0  0  0  0  0  0  0  0
  109.2718   62.9703   41.2767 N   0  0  0  0  0  0  0  0  0  0  0  0
  110.5797   65.5079   35.6608 N   0  0  0  0  0  0  0  0  0  0  0  0
  109.9142   64.3278   39.3961 N   0  0  0  0  0  0  0  0  0  0  0  0
  107.8083   68.8125   31.4040 N   0  0  0  0  0  4  0  0  0  0  0  0
  108.0050   69.6909   30.5298 O   0  0  0  0  0  1  0  0  0  0  0  0
  110.9250   62.2643   38.8458 O   0  0  0  0  0  0  0  0  0  0  0  0
  106.6722   68.3213   31.6101 O   0  0  0  0  0  0  0  0  0  0  0  0
  110.1141   64.5354   36.5600 O   0  0  0  0  0  0  0  0  0  0  0  0
  108.4564   65.4173   41.2767 S   0  0  0  0  0  0  0  0  0  0  0  0
  107.3345   61.7358   45.3213 H   0  0  0  0  0  0  0  0  0  0  0  0
  106.4127   64.0201   45.5986 H   0  0  0  0  0  0  0  0  0  0  0  0
  112.2580   68.8687   32.5725 H   0  0  0  0  0  0  0  0  0  0  0  0
  111.9108   67.1239   34.3215 H   0  0  0  0  0  0  0  0  0  0  0  0
  108.6952   61.1549   43.3117 H   0  0  0  0  0  0  0  0  0  0  0  0
  110.3302   69.6624   31.2020 H   0  0  0  0  0  0  0  0  0  0  0  0
  106.8315   65.7803   43.8675 H   0  0  0  0  0  0  0  0  0  0  0  0
  107.7080   66.9654   33.3290 H   0  0  0  0  0  0  0  0  0  0  0  0
  108.5829   65.5087   35.1112 H   0  0  0  0  0  0  0  0  0  0  0  0
  111.8486   64.9396   37.5981 H   0  0  0  0  0  0  0  0  0  0  0  0
  111.7965   63.3565   36.7611 H   0  0  0  0  0  0  0  0  0  0  0  0
  109.8115   65.2828   39.0243 H   0  0  0  0  0  0  0  0  0  0  0  0
  1  2  2  0
  1  5  1  0
  2  7  1  0
  3  4  2  0
  3  6  1  0
  4  9  1  0
  5 10  2  0
  6 11  2  0
  7 12  2  0
  8  9  2  0
  8 11  1  0
  9 14  1  0
 10 12  1  0
 10 17  1  0
 11 20  1  0
 12 25  1  0
 13 17  2  0
 13 19  1  0
 13 25  1  0
 14 18  2  0
 15 16  1  0
 15 19  1  0
 15 22  2  0
 16 24  1  0
 18 24  1  0
 20 21  1  0
 20 23  2  0
  1 26  1  0
  2 27  1  0
  3 28  1  0
  4 29  1  0
  5 30  1  0
  6 31  1  0
  7 32  1  0
  8 33  1  0
 14 34  1  0
 16 35  1  0
 16 36  1  0
 19 37  1  0
M  CHG  2  20   1  21  -1
M  END
>  <s_m_entry_id>  (86) 
21930

>  <s_m_Source_Path>  (86) 
C:\Users\vinicius\Downloads\Ligands_Ecoli

>  <s_m_Source_File>  (86) 
Ligands_Ecoli_o.sdf

>  <i_m_Source_File_Index>  (86) 
69

>  <i_f3d_flags>  (86) 
0

>  <r_epik_Ionization_Penalty>  (86) 
  0.0686

>  <r_epik_State_Penalty>  (86) 
  0.0628

>  <i_epik_Tot_Q>  (86) 
0

>  <s_m_job_name>  (86) 
ligs_ecFabI_ligprep_2

>  <class_value>  (86) 
0

>  <FRED Chemgauss4 score>  (86) 
-12.734059

>  <Name>  (86) 
CHEMBL237447

>  <Set>  (86) 
training

>  <HBA count>  (86) 
7

>  <HBD count>  (86) 
1

>  <ExactMolWt>  (86) 
356.05792586400025

>  <NumRotatableBounds>  (86) 
6

>  <FractionCsp3>  (86) 
0.0625

>  <TPSA>  (86) 
106.71999999999998

>  <LogP_WildmanCrippen>  (86) 
3.1937000000000015

>  <General_Cluster>  (86) 
3

>  <Biological_Cluster>  (86) 
2

>  <Physicochemical_Cluster>  (86) 
9

>  <Structural_Cluster>  (86) 
4

$$$$
CHEMBL302470
     RDKit          3D

 39 41  0  0  0  0  0  0  0  0999 V2000
  110.0070   66.1771   35.5689 C   0  0  0  0  0  0  0  0  0  0  0  0
  111.7183   64.7163   34.6888 C   0  0  0  0  0  0  0  0  0  0  0  0
  109.6342   66.0982   41.8636 C   0  0  0  0  0  0  0  0  0  0  0  0
  109.4365   63.7779   41.2201 C   0  0  0  0  0  0  0  0  0  0  0  0
  108.3552   66.0534   42.4182 C   0  0  0  0  0  0  0  0  0  0  0  0
  108.1575   63.7331   41.7747 C   0  0  0  0  0  0  0  0  0  0  0  0
  109.7256   66.6251   34.2783 C   0  0  0  0  0  0  0  0  0  0  0  0
  111.4368   65.1643   33.3981 C   0  0  0  0  0  0  0  0  0  0  0  0
  111.1428   65.5112   38.2454 C   0  0  0  0  0  0  0  0  0  0  0  0
  111.8945   63.4903   38.7006 C   0  0  0  0  0  0  0  0  0  0  0  0
  111.0034   65.2228   35.7742 C   0  0  0  0  0  0  0  0  0  0  0  0
  110.1749   64.9605   41.2645 C   0  0  0  0  0  0  0  0  0  0  0  0
  107.6168   64.8709   42.3738 C   0  0  0  0  0  0  0  0  0  0  0  0
  110.4405   66.1186   33.1929 C   0  0  0  0  0  0  0  0  0  0  0  0
  111.2940   64.7617   37.1026 C   0  0  0  0  0  0  0  0  0  0  0  0
  109.1349   67.5319   31.7949 C   0  0  0  0  0  0  0  0  0  0  0  0
  111.5549   65.0078   40.6663 C   0  0  0  0  0  0  0  0  0  0  0  0
  106.2498   64.8232   42.9684 C   0  0  0  0  0  0  0  0  0  0  0  0
  111.7620   63.5045   37.3929 N   0  0  0  0  0  0  0  0  0  0  0  0
  111.5309   64.6833   39.2608 N   0  0  0  0  0  0  0  0  0  0  0  0
  110.1659   66.5553   31.9333 O   0  0  0  0  0  0  0  0  0  0  0  0
  105.8514   66.0075   43.5204 F   0  0  0  0  0  0  0  0  0  0  0  0
  105.2731   64.5034   42.0688 F   0  0  0  0  0  0  0  0  0  0  0  0
  106.1439   63.8997   43.9678 F   0  0  0  0  0  0  0  0  0  0  0  0
  109.4431   66.5764   36.4248 H   0  0  0  0  0  0  0  0  0  0  0  0
  112.5040   63.9636   34.8507 H   0  0  0  0  0  0  0  0  0  0  0  0
  110.2165   67.0308   41.8987 H   0  0  0  0  0  0  0  0  0  0  0  0
  109.8629   62.8807   40.7477 H   0  0  0  0  0  0  0  0  0  0  0  0
  107.9288   66.9506   42.8906 H   0  0  0  0  0  0  0  0  0  0  0  0
  107.5752   62.8005   41.7397 H   0  0  0  0  0  0  0  0  0  0  0  0
  108.9399   67.3778   34.1164 H   0  0  0  0  0  0  0  0  0  0  0  0
  112.0006   64.7650   32.5421 H   0  0  0  0  0  0  0  0  0  0  0  0
  110.7875   66.5492   38.3248 H   0  0  0  0  0  0  0  0  0  0  0  0
  112.2543   62.6237   39.2746 H   0  0  0  0  0  0  0  0  0  0  0  0
  108.7969   67.8520   32.7915 H   0  0  0  0  0  0  0  0  0  0  0  0
  109.5241   68.4003   31.2432 H   0  0  0  0  0  0  0  0  0  0  0  0
  108.2888   67.0962   31.2432 H   0  0  0  0  0  0  0  0  0  0  0  0
  111.9653   66.0205   40.7928 H   0  0  0  0  0  0  0  0  0  0  0  0
  112.1815   64.2654   41.1823 H   0  0  0  0  0  0  0  0  0  0  0  0
  1  7  2  0
  1 11  1  0
  2  8  1  0
  2 11  2  0
  3  5  2  0
  3 12  1  0
  4  6  1  0
  4 12  2  0
  5 13  1  0
  6 13  2  0
  7 14  1  0
  8 14  2  0
  9 15  2  0
  9 20  1  0
 10 19  2  0
 10 20  1  0
 11 15  1  0
 12 17  1  0
 13 18  1  0
 14 21  1  0
 15 19  1  0
 16 21  1  0
 17 20  1  0
 18 22  1  0
 18 23  1  0
 18 24  1  0
  1 25  1  0
  2 26  1  0
  3 27  1  0
  4 28  1  0
  5 29  1  0
  6 30  1  0
  7 31  1  0
  8 32  1  0
  9 33  1  0
 10 34  1  0
 16 35  1  0
 16 36  1  0
 16 37  1  0
 17 38  1  0
 17 39  1  0
M  END
>  <s_m_entry_id>  (87) 
21886

>  <s_m_Source_Path>  (87) 
C:\Users\vinicius\Downloads\Ligands_Ecoli

>  <s_m_Source_File>  (87) 
Ligands_Ecoli_o.sdf

>  <i_m_Source_File_Index>  (87) 
49

>  <i_f3d_flags>  (87) 
0

>  <r_lp_tautomer_probability>  (87) 
1

>  <r_epik_Ionization_Penalty>  (87) 
  0.0340

>  <r_epik_State_Penalty>  (87) 
  0.0282

>  <i_epik_Tot_Q>  (87) 
0

>  <s_m_job_name>  (87) 
ligs_ecFabI_ligprep_2

>  <class_value>  (87) 
0

>  <FRED Chemgauss4 score>  (87) 
-15.792361

>  <Name>  (87) 
CHEMBL302470

>  <Set>  (87) 
training

>  <HBA count>  (87) 
3

>  <HBD count>  (87) 
0

>  <ExactMolWt>  (87) 
332.1136477600004

>  <NumRotatableBounds>  (87) 
5

>  <FractionCsp3>  (87) 
0.16666666666666666

>  <TPSA>  (87) 
27.05

>  <LogP_WildmanCrippen>  (87) 
4.625800000000003

>  <General_Cluster>  (87) 
1

>  <Biological_Cluster>  (87) 
2

>  <Physicochemical_Cluster>  (87) 
2

>  <Structural_Cluster>  (87) 
3

$$$$
CHEMBL73421
     RDKit          3D

 58 62  0  0  0  0  0  0  0  0999 V2000
  108.9922   68.9050   43.1956 C   0  0  0  0  0  0  0  0  0  0  0  0
  109.0446   67.9373   44.1966 C   0  0  0  0  0  0  0  0  0  0  0  0
  109.3214   68.5863   41.8733 C   0  0  0  0  0  0  0  0  0  0  0  0
  108.6327   62.9734   44.3616 C   0  0  0  0  0  0  0  0  0  0  0  0
  108.1634   62.8640   41.9942 C   0  0  0  0  0  0  0  0  0  0  0  0
  109.4260   66.6237   43.9097 C   0  0  0  0  0  0  0  0  0  0  0  0
  107.4084   62.3625   44.6326 C   0  0  0  0  0  0  0  0  0  0  0  0
  106.9391   62.2530   42.2651 C   0  0  0  0  0  0  0  0  0  0  0  0
  109.1291   65.8071   34.2527 C   0  0  0  0  0  0  0  0  0  0  0  0
  109.7100   67.2687   41.5584 C   0  0  0  0  0  0  0  0  0  0  0  0
  110.3898   64.6063   35.9277 C   0  0  0  0  0  0  0  0  0  0  0  0
  110.1012   66.6046   40.3642 C   0  0  0  0  0  0  0  0  0  0  0  0
  109.0102   63.2242   43.0424 C   0  0  0  0  0  0  0  0  0  0  0  0
  109.1940   65.1814   35.4976 C   0  0  0  0  0  0  0  0  0  0  0  0
  111.4559   65.2827   33.8679 C   0  0  0  0  0  0  0  0  0  0  0  0
  109.7526   66.3171   42.5837 C   0  0  0  0  0  0  0  0  0  0  0  0
  111.5208   64.6570   35.1128 C   0  0  0  0  0  0  0  0  0  0  0  0
  106.5616   62.0023   43.5844 C   0  0  0  0  0  0  0  0  0  0  0  0
  110.2601   65.8577   33.4378 C   0  0  0  0  0  0  0  0  0  0  0  0
  110.3626   65.2891   40.6843 C   0  0  0  0  0  0  0  0  0  0  0  0
  110.4140   63.9569   37.2472 C   0  0  0  0  0  0  0  0  0  0  0  0
  110.2320   67.1008   38.9676 C   0  0  0  0  0  0  0  0  0  0  0  0
  110.8104   64.2207   39.7534 C   0  0  0  0  0  0  0  0  0  0  0  0
  111.1300   66.1499   38.1578 C   0  0  0  0  0  0  0  0  0  0  0  0
  107.9627   65.1456   36.3444 C   0  0  0  0  0  0  0  0  0  0  0  0
  112.6483   65.3605   32.9586 C   0  0  0  0  0  0  0  0  0  0  0  0
  110.3313   63.8828   42.7498 C   0  0  0  0  0  0  0  0  0  0  0  0
  110.1543   65.1226   42.0234 N   0  0  0  0  0  0  0  0  0  0  0  0
  110.7521   64.7346   38.3610 N   0  0  0  0  0  0  0  0  0  0  0  0
  112.6245   64.1282   35.5058 O   0  0  0  0  0  1  0  0  0  0  0  0
  110.1243   62.7615   37.2720 O   0  0  0  0  0  0  0  0  0  0  0  0
  105.3675   61.4050   43.8490 O   0  0  0  0  0  0  0  0  0  0  0  0
  110.1745   66.4740   32.2252 O   0  0  0  0  0  0  0  0  0  0  0  0
  108.6885   69.9317   43.4477 H   0  0  0  0  0  0  0  0  0  0  0  0
  108.7817   68.2115   45.2289 H   0  0  0  0  0  0  0  0  0  0  0  0
  109.2773   69.3557   41.0884 H   0  0  0  0  0  0  0  0  0  0  0  0
  109.3005   63.2574   45.1882 H   0  0  0  0  0  0  0  0  0  0  0  0
  108.4611   63.0618   40.9539 H   0  0  0  0  0  0  0  0  0  0  0  0
  109.4680   65.8578   44.6982 H   0  0  0  0  0  0  0  0  0  0  0  0
  107.1107   62.1648   45.6729 H   0  0  0  0  0  0  0  0  0  0  0  0
  106.2713   61.9689   41.4385 H   0  0  0  0  0  0  0  0  0  0  0  0
  108.1861   66.2606   33.9136 H   0  0  0  0  0  0  0  0  0  0  0  0
  109.2365   67.1476   38.5021 H   0  0  0  0  0  0  0  0  0  0  0  0
  110.6835   68.1038   38.9797 H   0  0  0  0  0  0  0  0  0  0  0  0
  111.8431   63.9297   39.9959 H   0  0  0  0  0  0  0  0  0  0  0  0
  110.1545   63.3433   39.8527 H   0  0  0  0  0  0  0  0  0  0  0  0
  111.0357   66.3941   37.0894 H   0  0  0  0  0  0  0  0  0  0  0  0
  112.1664   66.2808   38.5023 H   0  0  0  0  0  0  0  0  0  0  0  0
  108.2479   65.1539   37.4067 H   0  0  0  0  0  0  0  0  0  0  0  0
  107.3409   66.0260   36.1248 H   0  0  0  0  0  0  0  0  0  0  0  0
  107.3931   64.2305   36.1248 H   0  0  0  0  0  0  0  0  0  0  0  0
  113.5662   65.4204   33.5619 H   0  0  0  0  0  0  0  0  0  0  0  0
  112.6846   64.4628   32.3239 H   0  0  0  0  0  0  0  0  0  0  0  0
  112.5676   66.2553   32.3239 H   0  0  0  0  0  0  0  0  0  0  0  0
  110.8437   64.0947   43.6998 H   0  0  0  0  0  0  0  0  0  0  0  0
  110.9284   63.1996   42.1280 H   0  0  0  0  0  0  0  0  0  0  0  0
  104.7663   61.1493   43.1051 H   0  0  0  0  0  0  0  0  0  0  0  0
  110.9683   66.5183   31.6353 H   0  0  0  0  0  0  0  0  0  0  0  0
  1  2  2  0
  1  3  1  0
  2  6  1  0
  3 10  2  0
  4  7  2  0
  4 13  1  0
  5  8  1  0
  5 13  2  0
  6 16  2  0
  7 18  1  0
  8 18  2  0
  9 14  2  0
  9 19  1  0
 10 12  1  0
 10 16  1  0
 11 14  1  0
 11 17  2  0
 11 21  1  0
 12 20  2  0
 12 22  1  0
 13 27  1  0
 14 25  1  0
 15 17  1  0
 15 19  2  0
 15 26  1  0
 16 28  1  0
 17 30  1  0
 18 32  1  0
 19 33  1  0
 20 23  1  0
 20 28  1  0
 21 29  1  0
 21 31  2  0
 22 24  1  0
 23 29  1  0
 24 29  1  0
 27 28  1  0
  1 34  1  0
  2 35  1  0
  3 36  1  0
  4 37  1  0
  5 38  1  0
  6 39  1  0
  7 40  1  0
  8 41  1  0
  9 42  1  0
 22 43  1  0
 22 44  1  0
 23 45  1  0
 23 46  1  0
 24 47  1  0
 24 48  1  0
 25 49  1  0
 25 50  1  0
 25 51  1  0
 26 52  1  0
 26 53  1  0
 26 54  1  0
 27 55  1  0
 27 56  1  0
 32 57  1  0
 33 58  1  0
M  CHG  1  30  -1
M  END
>  <s_m_entry_id>  (88) 
21843

>  <s_m_Source_Path>  (88) 
C:\Users\vinicius\Downloads\Ligands_Ecoli

>  <s_m_Source_File>  (88) 
Ligands_Ecoli_o.sdf

>  <i_m_Source_File_Index>  (88) 
24

>  <i_f3d_flags>  (88) 
0

>  <r_lp_tautomer_probability>  (88) 
0.999999999997365

>  <r_epik_Ionization_Penalty>  (88) 
  1.1390

>  <r_epik_State_Penalty>  (88) 
  1.2160

>  <i_epik_Tot_Q>  (88) 
-1

>  <s_m_job_name>  (88) 
ligs_ecFabI_ligprep_2

>  <class_value>  (88) 
0

>  <FRED Chemgauss4 score>  (88) 
-14.336884

>  <Name>  (88) 
CHEMBL73421

>  <Set>  (88) 
training

>  <HBA count>  (88) 
5

>  <HBD count>  (88) 
2

>  <ExactMolWt>  (88) 
441.18198085991065

>  <NumRotatableBounds>  (88) 
7

>  <FractionCsp3>  (88) 
0.2222222222222222

>  <TPSA>  (88) 
88.76

>  <LogP_WildmanCrippen>  (88) 
3.989740000000005

>  <General_Cluster>  (88) 
1

>  <Biological_Cluster>  (88) 
2

>  <Physicochemical_Cluster>  (88) 
3

>  <Structural_Cluster>  (88) 
7

$$$$
CHEMBL566443
     RDKit          3D

 52 55  0  0  0  0  0  0  0  0999 V2000
  106.5881   68.5511   30.8237 C   0  0  0  0  0  0  0  0  0  0  0  0
  107.5168   69.4995   30.3995 C   0  0  0  0  0  0  0  0  0  0  0  0
  106.9049   67.6432   31.8406 C   0  0  0  0  0  0  0  0  0  0  0  0
  108.7882   69.5713   30.9758 C   0  0  0  0  0  0  0  0  0  0  0  0
  108.8266   66.9537   33.4643 C   0  0  0  0  0  0  0  0  0  0  0  0
  109.8465   65.3572   39.4176 C   0  0  0  0  0  0  0  0  0  0  0  0
  112.0873   65.4666   40.1322 C   0  0  0  0  0  0  0  0  0  0  0  0
  108.1806   67.6964   32.4366 C   0  0  0  0  0  0  0  0  0  0  0  0
  111.1955   65.2410   39.1134 C   0  0  0  0  0  0  0  0  0  0  0  0
  109.0910   68.6573   31.9913 C   0  0  0  0  0  0  0  0  0  0  0  0
  109.3951   65.6844   40.7139 C   0  0  0  0  0  0  0  0  0  0  0  0
  110.0930   67.4683   33.6199 C   0  0  0  0  0  0  0  0  0  0  0  0
  110.3835   65.8540   41.6871 C   0  0  0  0  0  0  0  0  0  0  0  0
  109.0473   66.0919   43.8495 C   0  0  0  0  0  0  0  0  0  0  0  0
  111.6441   64.9125   37.7736 C   0  0  0  0  0  0  0  0  0  0  0  0
  110.9125   65.0605   36.6433 C   0  0  0  0  0  0  0  0  0  0  0  0
  111.4765   64.6540   35.3223 C   0  0  0  0  0  0  0  0  0  0  0  0
  107.7272   65.6865   43.2586 C   0  0  0  0  0  0  0  0  0  0  0  0
  107.4141   66.4733   42.0105 C   0  0  0  0  0  0  0  0  0  0  0  0
  111.4404   69.2975   32.5786 C   0  0  0  0  0  0  0  0  0  0  0  0
  112.0993   65.3404   33.0382 C   0  0  0  0  0  0  0  0  0  0  0  0
  111.1884   67.0572   34.5608 C   0  0  0  0  0  0  0  0  0  0  0  0
  111.7134   65.7695   41.3912 N   0  0  0  0  0  0  0  0  0  0  0  0
  110.2431   68.4955   32.7273 N   0  0  0  0  0  0  0  0  0  0  0  0
  108.0358   65.8514   40.8715 N   0  0  0  0  0  0  0  0  0  0  0  0
  110.1664   66.1101   43.0602 N   0  0  0  0  0  0  0  0  0  0  0  0
  111.5856   65.6645   34.3628 N   0  0  0  0  0  0  0  0  0  0  0  0
  109.1197   66.3495   45.0560 O   0  0  0  0  0  0  0  0  0  0  0  0
  111.7905   63.4790   35.1266 O   0  0  0  0  0  0  0  0  0  0  0  0
  105.5942   68.5156   30.3537 H   0  0  0  0  0  0  0  0  0  0  0  0
  107.2450   70.2027   29.5985 H   0  0  0  0  0  0  0  0  0  0  0  0
  106.1670   66.8972   32.1706 H   0  0  0  0  0  0  0  0  0  0  0  0
  109.5236   70.3187   30.6434 H   0  0  0  0  0  0  0  0  0  0  0  0
  108.3915   66.1182   34.0323 H   0  0  0  0  0  0  0  0  0  0  0  0
  109.1052   65.1888   38.6226 H   0  0  0  0  0  0  0  0  0  0  0  0
  113.1623   65.3966   39.9097 H   0  0  0  0  0  0  0  0  0  0  0  0
  112.6622   64.5101   37.6667 H   0  0  0  0  0  0  0  0  0  0  0  0
  109.8981   65.4822   36.6991 H   0  0  0  0  0  0  0  0  0  0  0  0
  107.7621   64.6163   43.0069 H   0  0  0  0  0  0  0  0  0  0  0  0
  106.9407   65.8894   44.0004 H   0  0  0  0  0  0  0  0  0  0  0  0
  106.3247   66.5022   41.8611 H   0  0  0  0  0  0  0  0  0  0  0  0
  107.8012   67.4970   42.1207 H   0  0  0  0  0  0  0  0  0  0  0  0
  111.8319   69.5597   33.5726 H   0  0  0  0  0  0  0  0  0  0  0  0
  112.1991   68.7247   32.0252 H   0  0  0  0  0  0  0  0  0  0  0  0
  111.1994   70.2171   32.0252 H   0  0  0  0  0  0  0  0  0  0  0  0
  113.0258   64.7558   33.1372 H   0  0  0  0  0  0  0  0  0  0  0  0
  111.3507   64.7508   32.4888 H   0  0  0  0  0  0  0  0  0  0  0  0
  112.3092   66.2700   32.4888 H   0  0  0  0  0  0  0  0  0  0  0  0
  112.0626   67.7033   34.3923 H   0  0  0  0  0  0  0  0  0  0  0  0
  110.8102   67.1601   35.5886 H   0  0  0  0  0  0  0  0  0  0  0  0
  107.4213   65.5064   40.1203 H   0  0  0  0  0  0  0  0  0  0  0  0
  111.0246   66.3616   43.5712 H   0  0  0  0  0  0  0  0  0  0  0  0
  1  2  2  0
  1  3  1  0
  2  4  1  0
  3  8  2  0
  4 10  2  0
  5  8  1  0
  5 12  2  0
  6  9  2  0
  6 11  1  0
  7  9  1  0
  7 23  2  0
  8 10  1  0
  9 15  1  0
 10 24  1  0
 11 13  2  0
 11 25  1  0
 12 22  1  0
 12 24  1  0
 13 23  1  0
 13 26  1  0
 14 18  1  0
 14 26  1  0
 14 28  2  0
 15 16  2  0
 16 17  1  0
 17 27  1  0
 17 29  2  0
 18 19  1  0
 19 25  1  0
 20 24  1  0
 21 27  1  0
 22 27  1  0
  1 30  1  0
  2 31  1  0
  3 32  1  0
  4 33  1  0
  5 34  1  0
  6 35  1  0
  7 36  1  0
 15 37  1  0
 16 38  1  0
 18 39  1  0
 18 40  1  0
 19 41  1  0
 19 42  1  0
 20 43  1  0
 20 44  1  0
 20 45  1  0
 21 46  1  0
 21 47  1  0
 21 48  1  0
 22 49  1  0
 22 50  1  0
 25 51  1  0
 26 52  1  0
M  END
>  <s_m_entry_id>  (89) 
21967

>  <s_m_Source_Path>  (89) 
C:\Users\vinicius\Downloads\Ligands_Ecoli

>  <s_m_Source_File>  (89) 
Ligands_Ecoli_o.sdf

>  <i_m_Source_File_Index>  (89) 
85

>  <i_f3d_flags>  (89) 
0

>  <r_lp_tautomer_probability>  (89) 
1

>  <r_epik_Ionization_Penalty>  (89) 
  0.0006

>  <r_epik_State_Penalty>  (89) 
  0.0000

>  <i_epik_Tot_Q>  (89) 
0

>  <s_m_job_name>  (89) 
ligs_ecFabI_ligprep_2

>  <class_value>  (89) 
1

>  <FRED Chemgauss4 score>  (89) 
-16.424709

>  <Name>  (89) 
CHEMBL566443

>  <Set>  (89) 
training

>  <HBA count>  (89) 
5

>  <HBD count>  (89) 
2

>  <ExactMolWt>  (89) 
389.1851749760007

>  <NumRotatableBounds>  (89) 
6

>  <FractionCsp3>  (89) 
0.22727272727272727

>  <TPSA>  (89) 
79.26

>  <LogP_WildmanCrippen>  (89) 
2.999200000000001

>  <General_Cluster>  (89) 
1

>  <Biological_Cluster>  (89) 
1

>  <Physicochemical_Cluster>  (89) 
3

>  <Structural_Cluster>  (89) 
7

$$$$
CHEMBL2178292
     RDKit          3D

 35 36  0  0  0  0  0  0  0  0999 V2000
  109.5051   66.2837   34.5798 C   0  0  0  0  0  0  0  0  0  0  0  0
  110.2516   65.6386   35.5657 C   0  0  0  0  0  0  0  0  0  0  0  0
  110.6964   63.5399   38.0389 C   0  0  0  0  0  0  0  0  0  0  0  0
  110.2362   63.7044   39.3453 C   0  0  0  0  0  0  0  0  0  0  0  0
  111.0032   65.4305   32.8872 C   0  0  0  0  0  0  0  0  0  0  0  0
  111.6210   65.6695   39.5858 C   0  0  0  0  0  0  0  0  0  0  0  0
  109.8808   66.1796   33.2405 C   0  0  0  0  0  0  0  0  0  0  0  0
  111.7498   64.7854   33.8731 C   0  0  0  0  0  0  0  0  0  0  0  0
  111.3740   64.8895   35.2124 C   0  0  0  0  0  0  0  0  0  0  0  0
  111.6191   64.4401   37.5059 C   0  0  0  0  0  0  0  0  0  0  0  0
  112.0814   65.5049   38.2794 C   0  0  0  0  0  0  0  0  0  0  0  0
  110.6984   64.7692   40.1187 C   0  0  0  0  0  0  0  0  0  0  0  0
  109.5817   68.2869   31.9153 C   0  0  0  0  0  0  0  0  0  0  0  0
  108.6841   66.0083   41.5888 C   0  0  0  0  0  0  0  0  0  0  0  0
  109.0825   66.8701   32.1867 C   0  0  0  0  0  0  0  0  0  0  0  0
  112.7792   64.1007   33.5304 O   0  0  0  0  0  1  0  0  0  0  0  0
  109.6851   63.6747   42.2423 O   0  0  0  0  0  0  0  0  0  0  0  0
  111.1075   65.7366   42.5093 O   0  0  0  0  0  0  0  0  0  0  0  0
  112.0746   64.2744   36.2114 O   0  0  0  0  0  0  0  0  0  0  0  0
  112.9680   66.3731   37.7735 F   0  0  0  0  0  0  0  0  0  0  0  0
  110.1222   64.9748   41.7540 S   0  0  0  0  0  6  0  0  0  0  0  0
  108.6201   66.8746   34.8584 H   0  0  0  0  0  0  0  0  0  0  0  0
  109.9552   65.7206   36.6218 H   0  0  0  0  0  0  0  0  0  0  0  0
  110.3317   62.7003   37.4289 H   0  0  0  0  0  0  0  0  0  0  0  0
  109.5088   62.9944   39.7657 H   0  0  0  0  0  0  0  0  0  0  0  0
  111.2995   65.3485   31.8310 H   0  0  0  0  0  0  0  0  0  0  0  0
  111.9855   66.5092   40.1957 H   0  0  0  0  0  0  0  0  0  0  0  0
  109.7629   68.8011   32.8707 H   0  0  0  0  0  0  0  0  0  0  0  0
  110.5181   68.2418   31.3398 H   0  0  0  0  0  0  0  0  0  0  0  0
  108.8239   68.8387   31.3398 H   0  0  0  0  0  0  0  0  0  0  0  0
  108.3094   66.2776   42.5874 H   0  0  0  0  0  0  0  0  0  0  0  0
  108.9509   66.9226   41.0384 H   0  0  0  0  0  0  0  0  0  0  0  0
  107.9026   65.4639   41.0384 H   0  0  0  0  0  0  0  0  0  0  0  0
  109.1475   66.2879   31.2556 H   0  0  0  0  0  0  0  0  0  0  0  0
  108.0448   66.9422   32.5445 H   0  0  0  0  0  0  0  0  0  0  0  0
  1  2  2  0
  1  7  1  0
  2  9  1  0
  3  4  2  0
  3 10  1  0
  4 12  1  0
  5  7  2  0
  5  8  1  0
  6 11  1  0
  6 12  2  0
  7 15  1  0
  8  9  2  0
  8 16  1  0
  9 19  1  0
 10 11  2  0
 10 19  1  0
 11 20  1  0
 12 21  1  0
 13 15  1  0
 14 21  1  0
 17 21  2  0
 18 21  2  0
  1 22  1  0
  2 23  1  0
  3 24  1  0
  4 25  1  0
  5 26  1  0
  6 27  1  0
 13 28  1  0
 13 29  1  0
 13 30  1  0
 14 31  1  0
 14 32  1  0
 14 33  1  0
 15 34  1  0
 15 35  1  0
M  CHG  1  16  -1
M  END
>  <s_m_entry_id>  (90) 
22051

>  <s_m_Source_Path>  (90) 
C:\Users\vinicius\Downloads\Ligands_Ecoli

>  <s_m_Source_File>  (90) 
Ligands_Ecoli_o.sdf

>  <i_m_Source_File_Index>  (90) 
131

>  <i_f3d_flags>  (90) 
0

>  <r_lp_tautomer_probability>  (90) 
1

>  <r_epik_Ionization_Penalty>  (90) 
  1.3104

>  <r_epik_State_Penalty>  (90) 
  1.3851

>  <i_epik_Tot_Q>  (90) 
-1

>  <s_m_job_name>  (90) 
ligs_ecFabI_ligprep_2

>  <class_value>  (90) 
1

>  <FRED Chemgauss4 score>  (90) 
-15.931204

>  <Name>  (90) 
CHEMBL2178292

>  <Set>  (90) 
training

>  <HBA count>  (90) 
4

>  <HBD count>  (90) 
0

>  <ExactMolWt>  (90) 
309.0602317279104

>  <NumRotatableBounds>  (90) 
6

>  <FractionCsp3>  (90) 
0.2

>  <TPSA>  (90) 
66.42999999999999

>  <LogP_WildmanCrippen>  (90) 
2.6575000000000006

>  <General_Cluster>  (90) 
4

>  <Biological_Cluster>  (90) 
1

>  <Physicochemical_Cluster>  (90) 
3

>  <Structural_Cluster>  (90) 
3

$$$$
CHEMBL567931
     RDKit          3D

 51 54  0  0  0  0  0  0  0  0999 V2000
  106.5569   66.3821   42.4689 C   0  0  0  0  0  0  0  0  0  0  0  0
  106.6135   64.9880   42.5417 C   0  0  0  0  0  0  0  0  0  0  0  0
  107.6134   67.1209   41.9189 C   0  0  0  0  0  0  0  0  0  0  0  0
  107.7236   64.2816   42.0692 C   0  0  0  0  0  0  0  0  0  0  0  0
  110.0785   65.8190   35.1214 C   0  0  0  0  0  0  0  0  0  0  0  0
  111.6759   64.7995   33.7241 C   0  0  0  0  0  0  0  0  0  0  0  0
  108.7398   66.4311   41.4374 C   0  0  0  0  0  0  0  0  0  0  0  0
  111.0952   64.8876   34.9647 C   0  0  0  0  0  0  0  0  0  0  0  0
  109.9714   66.7943   40.8314 C   0  0  0  0  0  0  0  0  0  0  0  0
  109.6542   66.6516   34.0641 C   0  0  0  0  0  0  0  0  0  0  0  0
  108.7578   65.0430   41.5278 C   0  0  0  0  0  0  0  0  0  0  0  0
  110.6487   65.6203   40.5957 C   0  0  0  0  0  0  0  0  0  0  0  0
  110.3383   66.5095   32.8539 C   0  0  0  0  0  0  0  0  0  0  0  0
  109.4259   68.4237   31.4322 C   0  0  0  0  0  0  0  0  0  0  0  0
  111.5143   64.0327   36.0592 C   0  0  0  0  0  0  0  0  0  0  0  0
  111.2866   64.2721   37.3728 C   0  0  0  0  0  0  0  0  0  0  0  0
  111.7991   63.3292   38.4103 C   0  0  0  0  0  0  0  0  0  0  0  0
  108.7042   69.1157   32.5531 C   0  0  0  0  0  0  0  0  0  0  0  0
  107.8156   68.1621   33.3118 C   0  0  0  0  0  0  0  0  0  0  0  0
  110.4356   68.1587   40.5154 C   0  0  0  0  0  0  0  0  0  0  0  0
  112.6494   63.0408   40.7059 C   0  0  0  0  0  0  0  0  0  0  0  0
  111.9855   65.3077   39.9879 C   0  0  0  0  0  0  0  0  0  0  0  0
  111.3203   65.5769   32.6821 N   0  0  0  0  0  0  0  0  0  0  0  0
  108.5807   67.4778   34.3202 N   0  0  0  0  0  0  0  0  0  0  0  0
  110.1382   67.2821   31.6872 N   0  0  0  0  0  0  0  0  0  0  0  0
  112.1151   63.8914   39.6503 N   0  0  0  0  0  0  0  0  0  0  0  0
  109.4160   68.9242   30.3023 O   0  0  0  0  0  0  0  0  0  0  0  0
  111.9423   62.1368   38.1360 O   0  0  0  0  0  0  0  0  0  0  0  0
  109.9211   64.5522   41.0148 O   0  0  0  0  0  0  0  0  0  0  0  0
  105.6690   66.9083   42.8493 H   0  0  0  0  0  0  0  0  0  0  0  0
  105.7687   64.4358   42.9790 H   0  0  0  0  0  0  0  0  0  0  0  0
  107.5622   68.2184   41.8651 H   0  0  0  0  0  0  0  0  0  0  0  0
  107.7778   63.1842   42.1219 H   0  0  0  0  0  0  0  0  0  0  0  0
  109.5875   65.9112   36.1014 H   0  0  0  0  0  0  0  0  0  0  0  0
  112.4725   64.0562   33.5725 H   0  0  0  0  0  0  0  0  0  0  0  0
  112.0621   63.1144   35.8011 H   0  0  0  0  0  0  0  0  0  0  0  0
  110.7213   65.1656   37.6764 H   0  0  0  0  0  0  0  0  0  0  0  0
  109.4450   69.5416   33.2458 H   0  0  0  0  0  0  0  0  0  0  0  0
  108.0724   69.9054   32.1206 H   0  0  0  0  0  0  0  0  0  0  0  0
  107.0013   68.7253   33.7912 H   0  0  0  0  0  0  0  0  0  0  0  0
  107.3955   67.4241   32.6126 H   0  0  0  0  0  0  0  0  0  0  0  0
  110.6225   68.7080   41.4499 H   0  0  0  0  0  0  0  0  0  0  0  0
  111.3655   68.1033   39.9304 H   0  0  0  0  0  0  0  0  0  0  0  0
  109.6649   68.6819   39.9304 H   0  0  0  0  0  0  0  0  0  0  0  0
  112.3842   63.4630   41.6864 H   0  0  0  0  0  0  0  0  0  0  0  0
  112.2231   62.0309   40.6141 H   0  0  0  0  0  0  0  0  0  0  0  0
  113.7442   62.9864   40.6141 H   0  0  0  0  0  0  0  0  0  0  0  0
  112.1073   65.9039   39.0716 H   0  0  0  0  0  0  0  0  0  0  0  0
  112.7613   65.5532   40.7280 H   0  0  0  0  0  0  0  0  0  0  0  0
  108.3068   67.6150   35.3036 H   0  0  0  0  0  0  0  0  0  0  0  0
  110.6278   66.9109   30.8605 H   0  0  0  0  0  0  0  0  0  0  0  0
  1  2  2  0
  1  3  1  0
  2  4  1  0
  3  7  2  0
  4 11  2  0
  5  8  2  0
  5 10  1  0
  6  8  1  0
  6 23  2  0
  7  9  1  0
  7 11  1  0
  8 15  1  0
  9 12  2  0
  9 20  1  0
 10 13  2  0
 10 24  1  0
 11 29  1  0
 12 22  1  0
 12 29  1  0
 13 23  1  0
 13 25  1  0
 14 18  1  0
 14 25  1  0
 14 27  2  0
 15 16  2  0
 16 17  1  0
 17 26  1  0
 17 28  2  0
 18 19  1  0
 19 24  1  0
 21 26  1  0
 22 26  1  0
  1 30  1  0
  2 31  1  0
  3 32  1  0
  4 33  1  0
  5 34  1  0
  6 35  1  0
 15 36  1  0
 16 37  1  0
 18 38  1  0
 18 39  1  0
 19 40  1  0
 19 41  1  0
 20 42  1  0
 20 43  1  0
 20 44  1  0
 21 45  1  0
 21 46  1  0
 21 47  1  0
 22 48  1  0
 22 49  1  0
 24 50  1  0
 25 51  1  0
M  END
>  <s_m_entry_id>  (91) 
21963

>  <s_m_Source_Path>  (91) 
C:\Users\vinicius\Downloads\Ligands_Ecoli

>  <s_m_Source_File>  (91) 
Ligands_Ecoli_o.sdf

>  <i_m_Source_File_Index>  (91) 
82

>  <i_f3d_flags>  (91) 
0

>  <r_lp_tautomer_probability>  (91) 
1

>  <r_epik_Ionization_Penalty>  (91) 
  0.0006

>  <r_epik_State_Penalty>  (91) 
  0.0000

>  <i_epik_Tot_Q>  (91) 
0

>  <s_m_job_name>  (91) 
ligs_ecFabI_ligprep_2

>  <class_value>  (91) 
1

>  <FRED Chemgauss4 score>  (91) 
-12.724957

>  <Name>  (91) 
CHEMBL567931

>  <Set>  (91) 
training

>  <HBA count>  (91) 
5

>  <HBD count>  (91) 
2

>  <ExactMolWt>  (91) 
390.16919056400064

>  <NumRotatableBounds>  (91) 
6

>  <FractionCsp3>  (91) 
0.22727272727272727

>  <TPSA>  (91) 
87.47000000000001

>  <LogP_WildmanCrippen>  (91) 
3.562120000000002

>  <General_Cluster>  (91) 
1

>  <Biological_Cluster>  (91) 
1

>  <Physicochemical_Cluster>  (91) 
3

>  <Structural_Cluster>  (91) 
7

$$$$
CHEMBL36327
     RDKit          3D

 49 52  0  0  1  0  0  0  0  0999 V2000
  109.2168   63.5307   43.9844 C   0  0  0  0  0  0  0  0  0  0  0  0
  108.2873   62.8866   44.8009 C   0  0  0  0  0  0  0  0  0  0  0  0
  106.2717   68.4846   42.1061 C   0  0  0  0  0  0  0  0  0  0  0  0
  106.2217   66.0703   42.1784 C   0  0  0  0  0  0  0  0  0  0  0  0
  108.1740   62.5615   42.0325 C   0  0  0  0  0  0  0  0  0  0  0  0
  110.7948   63.8023   38.1521 C   0  0  0  0  0  0  0  0  0  0  0  0
  112.1689   65.6464   37.4203 C   0  0  0  0  0  0  0  0  0  0  0  0
  106.9436   67.2623   42.1190 C   0  0  0  0  0  0  0  0  0  0  0  0
  109.1601   63.3682   42.6001 C   0  0  0  0  0  0  0  0  0  0  0  0
  111.3282   65.5963   39.6976 C   0  0  0  0  0  0  0  0  0  0  0  0
  104.8779   68.5149   42.1527 C   0  0  0  0  0  0  0  0  0  0  0  0
  110.7073   64.3706   39.4256 C   0  0  0  0  0  0  0  0  0  0  0  0
  107.3011   62.0798   44.2332 C   0  0  0  0  0  0  0  0  0  0  0  0
  104.8279   66.1005   42.2249 C   0  0  0  0  0  0  0  0  0  0  0  0
  107.2444   61.9172   42.8490 C   0  0  0  0  0  0  0  0  0  0  0  0
  111.5276   64.4392   37.1518 C   0  0  0  0  0  0  0  0  0  0  0  0
  112.0710   66.2223   38.6874 C   0  0  0  0  0  0  0  0  0  0  0  0
  104.1560   67.3228   42.2121 C   0  0  0  0  0  0  0  0  0  0  0  0
  108.4271   67.2287   42.0696 C   0  0  0  0  0  0  0  0  0  0  0  0
  111.2290   66.2372   41.0555 C   0  0  0  0  0  0  0  0  0  0  0  0
  110.1696   64.0710   41.7116 C   0  0  2  0  0  0  0  0  0  0  0  0
  110.1206   65.5946   41.8868 C   0  0  2  0  0  0  0  0  0  0  0  0
  104.2775   69.6487   42.1401 O   0  0  0  0  0  1  0  0  0  0  0  0
  109.1329   68.1122   42.5308 O   0  0  0  0  0  0  0  0  0  0  0  0
  109.9621   63.6787   40.3452 O   0  0  0  0  0  0  0  0  0  0  0  0
  106.3993   61.4560   45.0417 O   0  0  0  0  0  0  0  0  0  0  0  0
  104.1369   64.9276   42.2827 O   0  0  0  0  0  0  0  0  0  0  0  0
  106.2865   61.1312   42.2831 O   0  0  0  0  0  0  0  0  0  0  0  0
  111.6183   63.8804   35.9141 O   0  0  0  0  0  0  0  0  0  0  0  0
  112.7115   67.4042   38.9188 O   0  0  0  0  0  0  0  0  0  0  0  0
  102.7891   67.3183   42.2587 O   0  0  0  0  0  0  0  0  0  0  0  0
  108.8564   66.0974   41.4522 O   0  0  0  0  0  0  0  0  0  0  0  0
  109.9946   64.1668   44.4321 H   0  0  0  0  0  0  0  0  0  0  0  0
  108.3320   63.0149   45.8925 H   0  0  0  0  0  0  0  0  0  0  0  0
  106.8410   69.4247   42.0592 H   0  0  0  0  0  0  0  0  0  0  0  0
  106.7516   65.1064   42.1886 H   0  0  0  0  0  0  0  0  0  0  0  0
  108.1293   62.4333   40.9409 H   0  0  0  0  0  0  0  0  0  0  0  0
  110.2849   62.8513   37.9387 H   0  0  0  0  0  0  0  0  0  0  0  0
  112.7527   66.1458   36.6330 H   0  0  0  0  0  0  0  0  0  0  0  0
  112.1880   66.1165   41.5807 H   0  0  0  0  0  0  0  0  0  0  0  0
  110.9927   67.3032   40.9224 H   0  0  0  0  0  0  0  0  0  0  0  0
  111.1813   63.7624   42.0137 H   0  0  0  0  0  0  0  0  0  0  0  0
  110.2614   65.8378   42.9503 H   0  0  0  0  0  0  0  0  0  0  0  0
  105.6958   60.8814   44.6479 H   0  0  0  0  0  0  0  0  0  0  0  0
  103.1475   64.9371   42.3161 H   0  0  0  0  0  0  0  0  0  0  0  0
  105.6228   60.6703   42.8551 H   0  0  0  0  0  0  0  0  0  0  0  0
  112.1387   64.3327   35.2037 H   0  0  0  0  0  0  0  0  0  0  0  0
  112.6559   67.8311   39.8103 H   0  0  0  0  0  0  0  0  0  0  0  0
  102.2981   66.4597   42.3005 H   0  0  0  0  0  0  0  0  0  0  0  0
  1  2  2  0
  1  9  1  0
  2 13  1  0
  3  8  2  0
  3 11  1  0
  4  8  1  0
  4 14  2  0
  5  9  2  0
  5 15  1  0
  6 12  2  0
  6 16  1  0
  7 16  2  0
  7 17  1  0
  8 19  1  0
  9 21  1  0
 10 12  1  0
 10 17  2  0
 10 20  1  0
 11 18  2  0
 11 23  1  0
 12 25  1  0
 13 15  2  0
 13 26  1  0
 14 18  1  0
 14 27  1  0
 15 28  1  0
 16 29  1  0
 17 30  1  0
 18 31  1  0
 19 24  2  0
 19 32  1  0
 20 22  1  0
 21 22  1  0
 21 25  1  0
 22 32  1  0
  1 33  1  0
  2 34  1  0
  3 35  1  0
  4 36  1  0
  5 37  1  0
  6 38  1  0
  7 39  1  0
 20 40  1  0
 20 41  1  0
 21 42  1  1
 22 43  1  1
 26 44  1  0
 27 45  1  0
 28 46  1  0
 29 47  1  0
 30 48  1  0
 31 49  1  0
M  CHG  1  23  -1
M  END
>  <s_m_entry_id>  (92) 
21958

>  <s_m_Source_Path>  (92) 
C:\Users\vinicius\Downloads\Ligands_Ecoli

>  <s_m_Source_File>  (92) 
Ligands_Ecoli_o.sdf

>  <i_m_Source_File_Index>  (92) 
79

>  <i_f3d_flags>  (92) 
0

>  <r_lp_tautomer_probability>  (92) 
0.999999999999776

>  <r_epik_Ionization_Penalty>  (92) 
  1.2252

>  <r_epik_State_Penalty>  (92) 
  1.3386

>  <i_epik_Tot_Q>  (92) 
-1

>  <s_m_job_name>  (92) 
ligs_ecFabI_ligprep_2

>  <class_value>  (92) 
0

>  <FRED Chemgauss4 score>  (92) 
-11.157091

>  <Name>  (92) 
CHEMBL36327

>  <Set>  (92) 
training

>  <HBA count>  (92) 
10

>  <HBD count>  (92) 
6

>  <ExactMolWt>  (92) 
441.0827203239102

>  <NumRotatableBounds>  (92) 
9

>  <FractionCsp3>  (92) 
0.13636363636363635

>  <TPSA>  (92) 
179.96999999999997

>  <LogP_WildmanCrippen>  (92) 
1.8956000000000035

>  <General_Cluster>  (92) 
5

>  <Biological_Cluster>  (92) 
2

>  <Physicochemical_Cluster>  (92) 
1

>  <Structural_Cluster>  (92) 
2

$$$$
CHEMBL441138
     RDKit          3D

 41 44  0  0  0  0  0  0  0  0999 V2000
  108.4302   68.9914   31.7984 C   0  0  0  0  0  0  0  0  0  0  0  0
  109.5822   69.7744   32.0251 C   0  0  0  0  0  0  0  0  0  0  0  0
  109.5299   66.6602   40.4045 C   0  0  0  0  0  0  0  0  0  0  0  0
  108.4463   67.5955   31.9311 C   0  0  0  0  0  0  0  0  0  0  0  0
  110.8065   69.1998   32.3954 C   0  0  0  0  0  0  0  0  0  0  0  0
  109.1518   66.4902   41.7396 C   0  0  0  0  0  0  0  0  0  0  0  0
  109.6011   64.1114   41.6036 C   0  0  0  0  0  0  0  0  0  0  0  0
  109.9517   65.5450   39.6485 C   0  0  0  0  0  0  0  0  0  0  0  0
  109.6665   67.0407   32.2987 C   0  0  0  0  0  0  0  0  0  0  0  0
  110.8068   67.8158   32.5230 C   0  0  0  0  0  0  0  0  0  0  0  0
  109.1877   65.2315   42.3293 C   0  0  0  0  0  0  0  0  0  0  0  0
  109.9796   64.2895   40.2632 C   0  0  0  0  0  0  0  0  0  0  0  0
  111.3356   65.6820   32.8574 C   0  0  0  0  0  0  0  0  0  0  0  0
  110.6772   64.3460   37.9447 C   0  0  0  0  0  0  0  0  0  0  0  0
  111.3447   64.7148   35.5366 C   0  0  0  0  0  0  0  0  0  0  0  0
  108.8752   63.7704   44.1796 C   0  0  0  0  0  0  0  0  0  0  0  0
  112.1079   64.4568   33.1702 C   0  0  0  0  0  0  0  0  0  0  0  0
  110.3541   65.5612   38.3210 N   0  0  0  0  0  0  0  0  0  0  0  0
  110.0435   65.7316   32.5176 N   0  0  0  0  0  0  0  0  0  0  0  0
  111.8099   66.9322   32.8647 N   0  0  0  0  0  4  0  0  0  0  0  0
  111.1348   63.9288   36.6731 N   0  0  0  0  0  0  0  0  0  0  0  0
  111.8025   63.9239   34.4777 N   0  0  0  0  0  0  0  0  0  0  0  0
  111.1656   65.9266   35.4408 O   0  0  0  0  0  0  0  0  0  0  0  0
  108.8165   65.0859   43.6329 O   0  0  0  0  0  0  0  0  0  0  0  0
  110.5284   63.1167   39.1247 S   0  0  0  0  0  0  0  0  0  0  0  0
  107.4933   69.4901   31.5095 H   0  0  0  0  0  0  0  0  0  0  0  0
  109.5179   70.8663   31.9080 H   0  0  0  0  0  0  0  0  0  0  0  0
  109.4989   67.6590   39.9448 H   0  0  0  0  0  0  0  0  0  0  0  0
  107.5517   66.9799   31.7557 H   0  0  0  0  0  0  0  0  0  0  0  0
  111.7078   69.8048   32.5733 H   0  0  0  0  0  0  0  0  0  0  0  0
  108.8232   67.3593   42.3284 H   0  0  0  0  0  0  0  0  0  0  0  0
  109.6293   63.1157   42.0703 H   0  0  0  0  0  0  0  0  0  0  0  0
  108.8726   63.8294   45.2780 H   0  0  0  0  0  0  0  0  0  0  0  0
  108.0019   63.1934   43.8413 H   0  0  0  0  0  0  0  0  0  0  0  0
  109.7964   63.2735   43.8413 H   0  0  0  0  0  0  0  0  0  0  0  0
  111.8749   63.6916   32.4151 H   0  0  0  0  0  0  0  0  0  0  0  0
  113.1746   64.7252   33.1617 H   0  0  0  0  0  0  0  0  0  0  0  0
  109.4222   64.9145   32.4320 H   0  0  0  0  0  0  0  0  0  0  0  0
  112.7793   67.1962   33.0915 H   0  0  0  0  0  0  0  0  0  0  0  0
  111.3380   62.9241   36.5724 H   0  0  0  0  0  0  0  0  0  0  0  0
  111.9277   62.9141   34.6377 H   0  0  0  0  0  0  0  0  0  0  0  0
  1  2  2  0
  1  4  1  0
  2  5  1  0
  3  6  2  0
  3  8  1  0
  4  9  2  0
  5 10  2  0
  6 11  1  0
  7 11  2  0
  7 12  1  0
  8 12  2  0
  8 18  1  0
  9 10  1  0
  9 19  1  0
 10 20  1  0
 11 24  1  0
 12 25  1  0
 13 17  1  0
 13 19  1  0
 13 20  2  0
 14 18  2  0
 14 21  1  0
 14 25  1  0
 15 21  1  0
 15 22  1  0
 15 23  2  0
 16 24  1  0
 17 22  1  0
  1 26  1  0
  2 27  1  0
  3 28  1  0
  4 29  1  0
  5 30  1  0
  6 31  1  0
  7 32  1  0
 16 33  1  0
 16 34  1  0
 16 35  1  0
 17 36  1  0
 17 37  1  0
 19 38  1  0
 20 39  1  0
 21 40  1  0
 22 41  1  0
M  CHG  1  20   1
M  END
>  <s_m_entry_id>  (93) 
21927

>  <s_m_Source_Path>  (93) 
C:\Users\vinicius\Downloads\Ligands_Ecoli

>  <s_m_Source_File>  (93) 
Ligands_Ecoli_o.sdf

>  <i_m_Source_File_Index>  (93) 
66

>  <i_f3d_flags>  (93) 
0

>  <r_epik_Ionization_Penalty>  (93) 
  2.2401

>  <r_epik_State_Penalty>  (93) 
  2.3852

>  <i_epik_Tot_Q>  (93) 
1

>  <s_m_job_name>  (93) 
ligs_ecFabI_ligprep_2

>  <class_value>  (93) 
0

>  <FRED Chemgauss4 score>  (93) 
-14.258120

>  <Name>  (93) 
CHEMBL441138

>  <Set>  (93) 
training

>  <HBA count>  (93) 
4

>  <HBD count>  (93) 
3

>  <ExactMolWt>  (93) 
354.10192217209044

>  <NumRotatableBounds>  (93) 
5

>  <FractionCsp3>  (93) 
0.11764705882352941

>  <TPSA>  (93) 
93.17999999999999

>  <LogP_WildmanCrippen>  (93) 
2.9219999999999997

>  <General_Cluster>  (93) 
3

>  <Biological_Cluster>  (93) 
2

>  <Physicochemical_Cluster>  (93) 
9

>  <Structural_Cluster>  (93) 
4

$$$$
CHEMBL308525
     RDKit          3D

 51 55  0  0  0  0  0  0  0  0999 V2000
  109.8981   69.4803   42.7034 C   0  0  0  0  0  0  0  0  0  0  0  0
  109.7285   68.5343   43.7120 C   0  0  0  0  0  0  0  0  0  0  0  0
  110.1779   69.0852   41.3904 C   0  0  0  0  0  0  0  0  0  0  0  0
  108.2853   63.7680   43.9037 C   0  0  0  0  0  0  0  0  0  0  0  0
  107.8474   63.7326   41.5280 C   0  0  0  0  0  0  0  0  0  0  0  0
  109.8322   67.1669   43.4424 C   0  0  0  0  0  0  0  0  0  0  0  0
  106.9555   63.4293   44.1539 C   0  0  0  0  0  0  0  0  0  0  0  0
  106.5176   63.3939   41.7781 C   0  0  0  0  0  0  0  0  0  0  0  0
  109.4447   65.7053   35.0637 C   0  0  0  0  0  0  0  0  0  0  0  0
  110.6269   66.1521   33.0046 C   0  0  0  0  0  0  0  0  0  0  0  0
  110.2883   67.7120   41.0929 C   0  0  0  0  0  0  0  0  0  0  0  0
  110.5009   64.9036   35.4962 C   0  0  0  0  0  0  0  0  0  0  0  0
  110.5542   66.9675   39.9117 C   0  0  0  0  0  0  0  0  0  0  0  0
  108.7312   63.9197   42.5908 C   0  0  0  0  0  0  0  0  0  0  0  0
  110.1120   66.7841   42.1255 C   0  0  0  0  0  0  0  0  0  0  0  0
  111.6202   64.7261   34.6830 C   0  0  0  0  0  0  0  0  0  0  0  0
  106.0717   63.2422   43.0911 C   0  0  0  0  0  0  0  0  0  0  0  0
  109.5076   66.3295   33.8179 C   0  0  0  0  0  0  0  0  0  0  0  0
  111.6832   65.3504   33.4372 C   0  0  0  0  0  0  0  0  0  0  0  0
  110.5288   65.6301   40.2463 C   0  0  0  0  0  0  0  0  0  0  0  0
  110.3644   64.2782   36.8204 C   0  0  0  0  0  0  0  0  0  0  0  0
  110.8117   67.4098   38.5146 C   0  0  0  0  0  0  0  0  0  0  0  0
  110.7607   64.4814   39.3324 C   0  0  0  0  0  0  0  0  0  0  0  0
  111.5059   66.2833   37.7300 C   0  0  0  0  0  0  0  0  0  0  0  0
  110.1659   64.2845   42.3207 C   0  0  0  0  0  0  0  0  0  0  0  0
  110.2655   65.5258   41.5821 N   0  0  0  0  0  0  0  0  0  0  0  0
  110.8368   64.9806   37.9355 N   0  0  0  0  0  0  0  0  0  0  0  0
  112.5882   63.9849   35.0922 O   0  0  0  0  0  1  0  0  0  0  0  0
  109.8308   63.1700   36.8478 O   0  0  0  0  0  0  0  0  0  0  0  0
  104.7744   62.9105   43.3354 O   0  0  0  0  0  0  0  0  0  0  0  0
  108.2031   67.3175   33.2845 Cl  0  0  0  0  0  0  0  0  0  0  0  0
  113.0369   65.1859   32.3594 Cl  0  0  0  0  0  0  0  0  0  0  0  0
  109.8110   70.5506   42.9420 H   0  0  0  0  0  0  0  0  0  0  0  0
  109.5095   68.8689   44.7367 H   0  0  0  0  0  0  0  0  0  0  0  0
  110.3102   69.8380   40.5993 H   0  0  0  0  0  0  0  0  0  0  0  0
  108.9823   63.9155   44.7418 H   0  0  0  0  0  0  0  0  0  0  0  0
  108.1991   63.8522   40.4926 H   0  0  0  0  0  0  0  0  0  0  0  0
  109.6987   66.4180   44.2370 H   0  0  0  0  0  0  0  0  0  0  0  0
  106.6038   63.3098   45.1893 H   0  0  0  0  0  0  0  0  0  0  0  0
  105.8206   63.2464   40.9400 H   0  0  0  0  0  0  0  0  0  0  0  0
  108.5621   65.8453   35.7051 H   0  0  0  0  0  0  0  0  0  0  0  0
  110.6766   66.6444   32.0222 H   0  0  0  0  0  0  0  0  0  0  0  0
  109.8567   67.6583   38.0285 H   0  0  0  0  0  0  0  0  0  0  0  0
  111.4626   68.2964   38.5289 H   0  0  0  0  0  0  0  0  0  0  0  0
  111.7052   63.9840   39.5980 H   0  0  0  0  0  0  0  0  0  0  0  0
  109.9343   63.7613   39.4245 H   0  0  0  0  0  0  0  0  0  0  0  0
  111.4845   66.5299   36.6582 H   0  0  0  0  0  0  0  0  0  0  0  0
  112.5403   66.1987   38.0946 H   0  0  0  0  0  0  0  0  0  0  0  0
  110.6936   64.3953   43.2795 H   0  0  0  0  0  0  0  0  0  0  0  0
  110.6184   63.4847   41.7161 H   0  0  0  0  0  0  0  0  0  0  0  0
  104.1470   62.7777   42.5812 H   0  0  0  0  0  0  0  0  0  0  0  0
  1  2  2  0
  1  3  1  0
  2  6  1  0
  3 11  2  0
  4  7  2  0
  4 14  1  0
  5  8  1  0
  5 14  2  0
  6 15  2  0
  7 17  1  0
  8 17  2  0
  9 12  2  0
  9 18  1  0
 10 18  2  0
 10 19  1  0
 11 13  1  0
 11 15  1  0
 12 16  1  0
 12 21  1  0
 13 20  2  0
 13 22  1  0
 14 25  1  0
 15 26  1  0
 16 19  2  0
 16 28  1  0
 17 30  1  0
 18 31  1  0
 19 32  1  0
 20 23  1  0
 20 26  1  0
 21 27  1  0
 21 29  2  0
 22 24  1  0
 23 27  1  0
 24 27  1  0
 25 26  1  0
  1 33  1  0
  2 34  1  0
  3 35  1  0
  4 36  1  0
  5 37  1  0
  6 38  1  0
  7 39  1  0
  8 40  1  0
  9 41  1  0
 10 42  1  0
 22 43  1  0
 22 44  1  0
 23 45  1  0
 23 46  1  0
 24 47  1  0
 24 48  1  0
 25 49  1  0
 25 50  1  0
 30 51  1  0
M  CHG  1  28  -1
M  END
>  <s_m_entry_id>  (94) 
21827

>  <s_m_Source_Path>  (94) 
C:\Users\vinicius\Downloads\Ligands_Ecoli

>  <s_m_Source_File>  (94) 
Ligands_Ecoli_o.sdf

>  <i_m_Source_File_Index>  (94) 
14

>  <i_f3d_flags>  (94) 
0

>  <r_lp_tautomer_probability>  (94) 
0.999999999997365

>  <r_epik_Ionization_Penalty>  (94) 
  0.0280

>  <r_epik_State_Penalty>  (94) 
  0.0208

>  <i_epik_Tot_Q>  (94) 
-1

>  <s_m_job_name>  (94) 
ligs_ecFabI_ligprep_2

>  <class_value>  (94) 
0

>  <FRED Chemgauss4 score>  (94) 
-13.919209

>  <Name>  (94) 
CHEMBL308525

>  <Set>  (94) 
training

>  <HBA count>  (94) 
4

>  <HBD count>  (94) 
1

>  <ExactMolWt>  (94) 
465.0778214079105

>  <NumRotatableBounds>  (94) 
4

>  <FractionCsp3>  (94) 
0.16

>  <TPSA>  (94) 
68.53

>  <LogP_WildmanCrippen>  (94) 
4.9741000000000035

>  <General_Cluster>  (94) 
1

>  <Biological_Cluster>  (94) 
2

>  <Physicochemical_Cluster>  (94) 
2

>  <Structural_Cluster>  (94) 
7

$$$$
CHEMBL237450
     RDKit          3D

 38 40  0  0  0  0  0  0  0  0999 V2000
  110.3567   66.9318   40.6998 C   0  0  0  0  0  0  0  0  0  0  0  0
  111.3250   66.1159   40.1255 C   0  0  0  0  0  0  0  0  0  0  0  0
  109.3342   66.7664   35.0803 C   0  0  0  0  0  0  0  0  0  0  0  0
  108.7182   67.4190   34.0085 C   0  0  0  0  0  0  0  0  0  0  0  0
  110.1237   66.2325   32.4287 C   0  0  0  0  0  0  0  0  0  0  0  0
  109.2002   66.3322   41.1719 C   0  0  0  0  0  0  0  0  0  0  0  0
  109.9202   64.2429   40.5437 C   0  0  0  0  0  0  0  0  0  0  0  0
  111.1103   64.7447   40.0419 C   0  0  0  0  0  0  0  0  0  0  0  0
  110.3619   65.8305   34.8333 C   0  0  0  0  0  0  0  0  0  0  0  0
  110.7380   65.5805   33.5101 C   0  0  0  0  0  0  0  0  0  0  0  0
  109.1094   67.1540   32.7007 C   0  0  0  0  0  0  0  0  0  0  0  0
  111.9415   64.3355   35.2032 C   0  0  0  0  0  0  0  0  0  0  0  0
  113.0168   63.1882   37.1800 C   0  0  0  0  0  0  0  0  0  0  0  0
  109.2971   69.4523   31.1397 C   0  0  0  0  0  0  0  0  0  0  0  0
  112.1367   63.8371   39.4280 C   0  0  0  0  0  0  0  0  0  0  0  0
  108.9562   65.0041   41.1084 N   0  0  0  0  0  0  0  0  0  0  0  0
  111.0600   65.1098   35.7914 N   0  0  0  0  0  0  0  0  0  0  0  0
  112.8236   63.4717   35.7964 N   0  0  0  0  0  0  0  0  0  0  0  0
  112.1501   63.9329   37.9865 N   0  0  0  0  0  0  0  0  0  0  0  0
  113.8370   62.3926   37.6317 O   0  0  0  0  0  0  0  0  0  0  0  0
  108.4614   67.1566   30.1878 O   0  0  0  0  0  0  0  0  0  0  0  0
  107.0025   68.4142   31.8114 O   0  0  0  0  0  0  0  0  0  0  0  0
  112.0016   64.4076   33.4952 S   0  0  0  0  0  0  0  0  0  0  0  0
  108.3238   67.9833   31.3776 S   0  0  0  0  0  6  0  0  0  0  0  0
  110.5041   68.0191   40.7769 H   0  0  0  0  0  0  0  0  0  0  0  0
  112.2572   66.5534   39.7388 H   0  0  0  0  0  0  0  0  0  0  0  0
  109.0194   66.9813   36.1122 H   0  0  0  0  0  0  0  0  0  0  0  0
  107.9174   68.1481   34.2012 H   0  0  0  0  0  0  0  0  0  0  0  0
  110.4331   66.0231   31.3941 H   0  0  0  0  0  0  0  0  0  0  0  0
  108.4333   66.9766   41.6264 H   0  0  0  0  0  0  0  0  0  0  0  0
  109.7492   63.1582   40.4786 H   0  0  0  0  0  0  0  0  0  0  0  0
  109.5744   69.8709   32.1184 H   0  0  0  0  0  0  0  0  0  0  0  0
  110.2082   69.2013   30.5768 H   0  0  0  0  0  0  0  0  0  0  0  0
  108.7108   70.1935   30.5768 H   0  0  0  0  0  0  0  0  0  0  0  0
  113.1300   64.1132   39.8116 H   0  0  0  0  0  0  0  0  0  0  0  0
  111.8800   62.8020   39.6976 H   0  0  0  0  0  0  0  0  0  0  0  0
  113.4349   62.9526   35.1501 H   0  0  0  0  0  0  0  0  0  0  0  0
  111.4905   64.5800   37.5314 H   0  0  0  0  0  0  0  0  0  0  0  0
  1  2  2  0
  1  6  1  0
  2  8  1  0
  3  4  2  0
  3  9  1  0
  4 11  1  0
  5 10  1  0
  5 11  2  0
  6 16  2  0
  7  8  2  0
  7 16  1  0
  8 15  1  0
  9 10  2  0
  9 17  1  0
 10 23  1  0
 11 24  1  0
 12 17  2  0
 12 18  1  0
 12 23  1  0
 13 18  1  0
 13 19  1  0
 13 20  2  0
 14 24  1  0
 15 19  1  0
 21 24  2  0
 22 24  2  0
  1 25  1  0
  2 26  1  0
  3 27  1  0
  4 28  1  0
  5 29  1  0
  6 30  1  0
  7 31  1  0
 14 32  1  0
 14 33  1  0
 14 34  1  0
 15 35  1  0
 15 36  1  0
 18 37  1  0
 19 38  1  0
M  END
>  <s_m_entry_id>  (95) 
21928

>  <s_m_Source_Path>  (95) 
C:\Users\vinicius\Downloads\Ligands_Ecoli

>  <s_m_Source_File>  (95) 
Ligands_Ecoli_o.sdf

>  <i_m_Source_File_Index>  (95) 
67

>  <i_f3d_flags>  (95) 
0

>  <r_lp_tautomer_probability>  (95) 
1

>  <r_epik_Ionization_Penalty>  (95) 
  0.0045

>  <r_epik_State_Penalty>  (95) 
  0.0000

>  <i_epik_Tot_Q>  (95) 
0

>  <s_m_job_name>  (95) 
ligs_ecFabI_ligprep_2

>  <class_value>  (95) 
0

>  <FRED Chemgauss4 score>  (95) 
-12.114648

>  <Name>  (95) 
CHEMBL237450

>  <Set>  (95) 
training

>  <HBA count>  (95) 
6

>  <HBD count>  (95) 
2

>  <ExactMolWt>  (95) 
362.0507323080004

>  <NumRotatableBounds>  (95) 
5

>  <FractionCsp3>  (95) 
0.13333333333333333

>  <TPSA>  (95) 
101.04999999999998

>  <LogP_WildmanCrippen>  (95) 
2.4164999999999996

>  <General_Cluster>  (95) 
3

>  <Biological_Cluster>  (95) 
2

>  <Physicochemical_Cluster>  (95) 
9

>  <Structural_Cluster>  (95) 
4

$$$$
CHEMBL463212
     RDKit          3D

 37 39  0  0  0  0  0  0  0  0999 V2000
  112.4188   63.5549   40.9383 C   0  0  0  0  0  0  0  0  0  0  0  0
  108.4528   68.7606   31.7198 C   0  0  0  0  0  0  0  0  0  0  0  0
  111.8936   62.7593   39.9201 C   0  0  0  0  0  0  0  0  0  0  0  0
  112.5470   64.9314   40.7521 C   0  0  0  0  0  0  0  0  0  0  0  0
  107.9056   67.7140   32.4619 C   0  0  0  0  0  0  0  0  0  0  0  0
  109.8371   68.9180   31.6515 C   0  0  0  0  0  0  0  0  0  0  0  0
  111.4967   63.3401   38.7156 C   0  0  0  0  0  0  0  0  0  0  0  0
  112.1501   65.5121   39.5476 C   0  0  0  0  0  0  0  0  0  0  0  0
  108.7427   66.8247   33.1358 C   0  0  0  0  0  0  0  0  0  0  0  0
  110.6742   68.0288   32.3254 C   0  0  0  0  0  0  0  0  0  0  0  0
  111.6249   64.7165   38.5293 C   0  0  0  0  0  0  0  0  0  0  0  0
  110.1270   66.9822   33.0676 C   0  0  0  0  0  0  0  0  0  0  0  0
  111.2082   65.3271   37.2641 C   0  0  0  0  0  0  0  0  0  0  0  0
  111.6631   65.0818   36.0282 C   0  0  0  0  0  0  0  0  0  0  0  0
  110.9200   65.9203   35.1119 C   0  0  0  0  0  0  0  0  0  0  0  0
  110.1449   66.3399   37.1253 C   0  0  0  0  0  0  0  0  0  0  0  0
  111.0122   66.0427   33.7797 C   0  0  0  0  0  0  0  0  0  0  0  0
  112.0125   65.1831   33.0822 C   0  0  0  0  0  0  0  0  0  0  0  0
  112.2791   63.0809   32.0331 C   0  0  0  0  0  0  0  0  0  0  0  0
  112.5261   64.3188   35.5228 O   0  0  0  0  0  1  0  0  0  0  0  0
  109.5019   66.8168   38.0470 O   0  0  0  0  0  0  0  0  0  0  0  0
  113.1687   65.5114   32.8566 O   0  0  0  0  0  0  0  0  0  0  0  0
  109.9860   66.6832   35.8129 O   0  0  0  0  0  0  0  0  0  0  0  0
  111.4336   64.0024   32.7298 O   0  0  0  0  0  0  0  0  0  0  0  0
  112.7319   63.0969   41.8881 H   0  0  0  0  0  0  0  0  0  0  0  0
  107.7927   69.4619   31.1884 H   0  0  0  0  0  0  0  0  0  0  0  0
  111.7924   61.6739   40.0670 H   0  0  0  0  0  0  0  0  0  0  0  0
  112.9611   65.5589   41.5551 H   0  0  0  0  0  0  0  0  0  0  0  0
  106.8139   67.5899   32.5157 H   0  0  0  0  0  0  0  0  0  0  0  0
  110.2686   69.7434   31.0662 H   0  0  0  0  0  0  0  0  0  0  0  0
  111.0826   62.7126   37.9126 H   0  0  0  0  0  0  0  0  0  0  0  0
  112.2513   66.5975   39.4007 H   0  0  0  0  0  0  0  0  0  0  0  0
  108.3112   65.9992   33.7210 H   0  0  0  0  0  0  0  0  0  0  0  0
  111.7658   68.1529   32.2716 H   0  0  0  0  0  0  0  0  0  0  0  0
  112.8369   62.4730   32.7606 H   0  0  0  0  0  0  0  0  0  0  0  0
  111.6633   62.4236   31.4017 H   0  0  0  0  0  0  0  0  0  0  0  0
  112.9868   63.6380   31.4017 H   0  0  0  0  0  0  0  0  0  0  0  0
  1  3  2  0
  1  4  1  0
  2  5  2  0
  2  6  1  0
  3  7  1  0
  4  8  2  0
  5  9  1  0
  6 10  2  0
  7 11  2  0
  8 11  1  0
  9 12  2  0
 10 12  1  0
 11 13  1  0
 12 17  1  0
 13 14  2  0
 13 16  1  0
 14 15  1  0
 14 20  1  0
 15 17  2  0
 15 23  1  0
 16 21  2  0
 16 23  1  0
 17 18  1  0
 18 22  2  0
 18 24  1  0
 19 24  1  0
  1 25  1  0
  2 26  1  0
  3 27  1  0
  4 28  1  0
  5 29  1  0
  6 30  1  0
  7 31  1  0
  8 32  1  0
  9 33  1  0
 10 34  1  0
 19 35  1  0
 19 36  1  0
 19 37  1  0
M  CHG  1  20  -1
M  END
>  <s_m_entry_id>  (96) 
22000

>  <s_m_Source_Path>  (96) 
C:\Users\vinicius\Downloads\Ligands_Ecoli

>  <s_m_Source_File>  (96) 
Ligands_Ecoli_o.sdf

>  <i_m_Source_File_Index>  (96) 
101

>  <i_f3d_flags>  (96) 
0

>  <r_lp_tautomer_probability>  (96) 
1

>  <r_epik_Ionization_Penalty>  (96) 
  0.0000

>  <r_epik_State_Penalty>  (96) 
  0.0000

>  <i_epik_Tot_Q>  (96) 
-1

>  <s_m_job_name>  (96) 
ligs_ecFabI_ligprep_2

>  <class_value>  (96) 
0

>  <FRED Chemgauss4 score>  (96) 
-10.554808

>  <Name>  (96) 
CHEMBL463212

>  <Set>  (96) 
training

>  <HBA count>  (96) 
5

>  <HBD count>  (96) 
0

>  <ExactMolWt>  (96) 
321.0768470959103

>  <NumRotatableBounds>  (96) 
4

>  <FractionCsp3>  (96) 
0.05263157894736842

>  <TPSA>  (96) 
75.66

>  <LogP_WildmanCrippen>  (96) 
1.8991000000000005

>  <General_Cluster>  (96) 
2

>  <Biological_Cluster>  (96) 
2

>  <Physicochemical_Cluster>  (96) 
6

>  <Structural_Cluster>  (96) 
2

$$$$
CHEMBL2178312
     RDKit          3D

 32 33  0  0  0  0  0  0  0  0999 V2000
  112.5157   65.8620   39.7593 C   0  0  0  0  0  0  0  0  0  0  0  0
  112.3208   66.6058   38.5955 C   0  0  0  0  0  0  0  0  0  0  0  0
  109.1489   66.5119   34.0952 C   0  0  0  0  0  0  0  0  0  0  0  0
  112.0803   64.5383   39.8222 C   0  0  0  0  0  0  0  0  0  0  0  0
  111.6905   66.0259   37.4946 C   0  0  0  0  0  0  0  0  0  0  0  0
  109.3207   65.7023   35.2180 C   0  0  0  0  0  0  0  0  0  0  0  0
  111.2875   65.7812   33.2411 C   0  0  0  0  0  0  0  0  0  0  0  0
  110.1323   66.5512   33.1067 C   0  0  0  0  0  0  0  0  0  0  0  0
  111.4500   63.9584   38.7213 C   0  0  0  0  0  0  0  0  0  0  0  0
  111.2551   64.7022   37.5575 C   0  0  0  0  0  0  0  0  0  0  0  0
  110.4759   64.9322   35.3524 C   0  0  0  0  0  0  0  0  0  0  0  0
  111.4593   64.9716   34.3640 C   0  0  0  0  0  0  0  0  0  0  0  0
  110.5098   68.8195   32.1072 C   0  0  0  0  0  0  0  0  0  0  0  0
  109.9475   67.4148   31.9049 C   0  0  0  0  0  0  0  0  0  0  0  0
  111.0145   62.6177   38.7988 N   0  0  0  0  0  0  0  0  0  0  0  0
  112.5921   64.2246   34.4845 O   0  0  0  0  0  0  0  0  0  0  0  0
  110.6316   64.1458   36.4540 O   0  0  0  0  0  0  0  0  0  0  0  0
  113.0128   66.3193   40.6275 H   0  0  0  0  0  0  0  0  0  0  0  0
  112.6642   67.6497   38.5459 H   0  0  0  0  0  0  0  0  0  0  0  0
  108.2380   67.1193   33.9893 H   0  0  0  0  0  0  0  0  0  0  0  0
  112.2340   63.9518   40.7400 H   0  0  0  0  0  0  0  0  0  0  0  0
  111.5368   66.6124   36.5768 H   0  0  0  0  0  0  0  0  0  0  0  0
  108.5452   65.6712   35.9975 H   0  0  0  0  0  0  0  0  0  0  0  0
  112.0630   65.8124   32.4616 H   0  0  0  0  0  0  0  0  0  0  0  0
  110.5938   69.0293   33.1837 H   0  0  0  0  0  0  0  0  0  0  0  0
  111.5042   68.8869   31.6418 H   0  0  0  0  0  0  0  0  0  0  0  0
  109.8366   69.5545   31.6418 H   0  0  0  0  0  0  0  0  0  0  0  0
  110.4613   66.9479   31.0517 H   0  0  0  0  0  0  0  0  0  0  0  0
  108.8669   67.5087   31.7217 H   0  0  0  0  0  0  0  0  0  0  0  0
  110.5480   62.1803   37.9914 H   0  0  0  0  0  0  0  0  0  0  0  0
  111.1633   62.0770   39.6628 H   0  0  0  0  0  0  0  0  0  0  0  0
  112.7222   63.6472   35.2781 H   0  0  0  0  0  0  0  0  0  0  0  0
  1  2  2  0
  1  4  1  0
  2  5  1  0
  3  6  2  0
  3  8  1  0
  4  9  2  0
  5 10  2  0
  6 11  1  0
  7  8  2  0
  7 12  1  0
  8 14  1  0
  9 10  1  0
  9 15  1  0
 10 17  1  0
 11 12  2  0
 11 17  1  0
 12 16  1  0
 13 14  1  0
  1 18  1  0
  2 19  1  0
  3 20  1  0
  4 21  1  0
  5 22  1  0
  6 23  1  0
  7 24  1  0
 13 25  1  0
 13 26  1  0
 13 27  1  0
 14 28  1  0
 14 29  1  0
 15 30  1  0
 15 31  1  0
 16 32  1  0
M  END
>  <s_m_entry_id>  (97) 
22044

>  <s_m_Source_Path>  (97) 
C:\Users\vinicius\Downloads\Ligands_Ecoli

>  <s_m_Source_File>  (97) 
Ligands_Ecoli_o.sdf

>  <i_m_Source_File_Index>  (97) 
127

>  <i_f3d_flags>  (97) 
0

>  <r_lp_tautomer_probability>  (97) 
1

>  <r_epik_Ionization_Penalty>  (97) 
  0.0059

>  <r_epik_State_Penalty>  (97) 
  0.0000

>  <i_epik_Tot_Q>  (97) 
0

>  <s_m_job_name>  (97) 
ligs_ecFabI_ligprep_2

>  <class_value>  (97) 
1

>  <FRED Chemgauss4 score>  (97) 
-15.912747

>  <Name>  (97) 
CHEMBL2178312

>  <Set>  (97) 
training

>  <HBA count>  (97) 
3

>  <HBD count>  (97) 
2

>  <ExactMolWt>  (97) 
229.11027872

>  <NumRotatableBounds>  (97) 
6

>  <FractionCsp3>  (97) 
0.14285714285714285

>  <TPSA>  (97) 
55.480000000000004

>  <LogP_WildmanCrippen>  (97) 
3.329100000000001

>  <General_Cluster>  (97) 
4

>  <Biological_Cluster>  (97) 
1

>  <Physicochemical_Cluster>  (97) 
6

>  <Structural_Cluster>  (97) 
3

$$$$
CHEMBL128000
     RDKit          3D

 32 33  0  0  0  0  0  0  0  0999 V2000
  110.1176   68.6678   32.4045 C   0  0  0  0  0  0  0  0  0  0  0  0
  111.7609   65.7537   37.3852 C   0  0  0  0  0  0  0  0  0  0  0  0
  109.2467   69.4431   31.6391 C   0  0  0  0  0  0  0  0  0  0  0  0
  111.6289   65.7498   38.7738 C   0  0  0  0  0  0  0  0  0  0  0  0
  108.4931   66.8798   32.4418 C   0  0  0  0  0  0  0  0  0  0  0  0
  110.2946   63.7400   38.6412 C   0  0  0  0  0  0  0  0  0  0  0  0
  109.7409   67.3861   32.8059 C   0  0  0  0  0  0  0  0  0  0  0  0
  111.1597   64.7508   36.6246 C   0  0  0  0  0  0  0  0  0  0  0  0
  110.8958   64.7430   39.4018 C   0  0  0  0  0  0  0  0  0  0  0  0
  107.9990   68.9369   31.2751 C   0  0  0  0  0  0  0  0  0  0  0  0
  107.6222   67.6552   31.6764 C   0  0  0  0  0  0  0  0  0  0  0  0
  110.4266   63.7440   37.2526 C   0  0  0  0  0  0  0  0  0  0  0  0
  110.6503   66.5768   33.6017 C   0  0  0  0  0  0  0  0  0  0  0  0
  110.2896   65.5181   34.3614 C   0  0  0  0  0  0  0  0  0  0  0  0
  111.3119   64.7750   35.1499 C   0  0  0  0  0  0  0  0  0  0  0  0
  112.2703   64.2158   34.6284 O   0  0  0  0  0  0  0  0  0  0  0  0
  110.7661   64.7402   40.7568 O   0  0  0  0  0  0  0  0  0  0  0  0
  107.1577   69.7043   30.5275 O   0  0  0  0  0  0  0  0  0  0  0  0
  106.4056   67.1511   31.3274 O   0  0  0  0  0  0  0  0  0  0  0  0
  109.8313   62.7553   36.5274 O   0  0  0  0  0  0  0  0  0  0  0  0
  111.1015   69.0671   32.6916 H   0  0  0  0  0  0  0  0  0  0  0  0
  112.3391   66.5477   36.8899 H   0  0  0  0  0  0  0  0  0  0  0  0
  109.5438   70.4538   31.3225 H   0  0  0  0  0  0  0  0  0  0  0  0
  112.1029   66.5407   39.3736 H   0  0  0  0  0  0  0  0  0  0  0  0
  108.1960   65.8691   32.7583 H   0  0  0  0  0  0  0  0  0  0  0  0
  109.7165   62.9460   39.1365 H   0  0  0  0  0  0  0  0  0  0  0  0
  111.7163   66.8476   33.5841 H   0  0  0  0  0  0  0  0  0  0  0  0
  109.2360   65.2040   34.3974 H   0  0  0  0  0  0  0  0  0  0  0  0
  110.2458   64.0257   41.2028 H   0  0  0  0  0  0  0  0  0  0  0  0
  106.2701   69.3535   30.2643 H   0  0  0  0  0  0  0  0  0  0  0  0
  105.7817   67.6951   30.7843 H   0  0  0  0  0  0  0  0  0  0  0  0
  109.9163   62.7451   35.5411 H   0  0  0  0  0  0  0  0  0  0  0  0
  1  3  2  0
  1  7  1  0
  2  4  2  0
  2  8  1  0
  3 10  1  0
  4  9  1  0
  5  7  2  0
  5 11  1  0
  6  9  2  0
  6 12  1  0
  7 13  1  0
  8 12  2  0
  8 15  1  0
  9 17  1  0
 10 11  2  0
 10 18  1  0
 11 19  1  0
 12 20  1  0
 13 14  2  0
 14 15  1  0
 15 16  2  0
  1 21  1  0
  2 22  1  0
  3 23  1  0
  4 24  1  0
  5 25  1  0
  6 26  1  0
 13 27  1  0
 14 28  1  0
 17 29  1  0
 18 30  1  0
 19 31  1  0
 20 32  1  0
M  END
>  <s_m_entry_id>  (98) 
21951

>  <s_m_Source_Path>  (98) 
C:\Users\vinicius\Downloads\Ligands_Ecoli

>  <s_m_Source_File>  (98) 
Ligands_Ecoli_o.sdf

>  <i_m_Source_File_Index>  (98) 
77

>  <i_f3d_flags>  (98) 
0

>  <r_epik_Ionization_Penalty>  (98) 
  0.7025

>  <r_epik_State_Penalty>  (98) 
  0.5645

>  <i_epik_Tot_Q>  (98) 
0

>  <s_m_job_name>  (98) 
ligs_ecFabI_ligprep_2

>  <class_value>  (98) 
0

>  <FRED Chemgauss4 score>  (98) 
-15.580162

>  <Name>  (98) 
CHEMBL128000

>  <Set>  (98) 
training

>  <HBA count>  (98) 
5

>  <HBD count>  (98) 
4

>  <ExactMolWt>  (98) 
272.0684734840003

>  <NumRotatableBounds>  (98) 
7

>  <FractionCsp3>  (98) 
0.0

>  <TPSA>  (98) 
97.99000000000001

>  <LogP_WildmanCrippen>  (98) 
2.405100000000002

>  <General_Cluster>  (98) 
2

>  <Biological_Cluster>  (98) 
2

>  <Physicochemical_Cluster>  (98) 
9

>  <Structural_Cluster>  (98) 
1

$$$$
CHEMBL304450
     RDKit          3D

 30 32  0  0  1  0  0  0  0  0999 V2000
  110.3668   64.6419   40.0325 C   0  0  0  0  0  0  0  0  0  0  0  0
  110.1559   65.8286   39.3305 C   0  0  0  0  0  0  0  0  0  0  0  0
  111.1162   63.6153   39.4579 C   0  0  0  0  0  0  0  0  0  0  0  0
  110.6942   65.9886   38.0536 C   0  0  0  0  0  0  0  0  0  0  0  0
  111.6545   63.7753   38.1811 C   0  0  0  0  0  0  0  0  0  0  0  0
  108.3545   67.3631   32.5615 C   0  0  0  0  0  0  0  0  0  0  0  0
  108.0298   68.5511   31.9444 C   0  0  0  0  0  0  0  0  0  0  0  0
  110.3952   68.4743   32.6141 C   0  0  0  0  0  0  0  0  0  0  0  0
  109.7247   67.3185   32.9496 C   0  0  0  0  0  0  0  0  0  0  0  0
  111.4435   64.9620   37.4789 C   0  0  0  0  0  0  0  0  0  0  0  0
  110.3831   66.1922   33.6266 C   0  0  0  0  0  0  0  0  0  0  0  0
  111.7498   64.4740   33.6693 C   0  0  0  0  0  0  0  0  0  0  0  0
  111.0692   64.6566   35.0131 C   0  0  1  0  0  0  0  0  0  0  0  0
  112.0255   65.1342   36.0988 C   0  0  0  0  0  0  0  0  0  0  0  0
  110.0576   65.6991   34.7797 N   0  0  0  0  0  0  0  0  0  0  0  0
  111.4194   65.6501   32.9444 O   0  0  0  0  0  0  0  0  0  0  0  0
  109.3739   69.6065   31.8348 S   0  0  0  0  0  0  0  0  0  0  0  0
  109.9421   64.5156   41.0393 H   0  0  0  0  0  0  0  0  0  0  0  0
  109.5651   66.6382   39.7838 H   0  0  0  0  0  0  0  0  0  0  0  0
  111.2827   62.6796   40.0117 H   0  0  0  0  0  0  0  0  0  0  0  0
  110.5278   66.9244   37.4999 H   0  0  0  0  0  0  0  0  0  0  0  0
  112.2454   62.9657   37.7279 H   0  0  0  0  0  0  0  0  0  0  0  0
  107.6398   66.5449   32.7344 H   0  0  0  0  0  0  0  0  0  0  0  0
  107.0255   68.7933   31.5666 H   0  0  0  0  0  0  0  0  0  0  0  0
  111.4611   68.6492   32.8223 H   0  0  0  0  0  0  0  0  0  0  0  0
  112.8393   64.3861   33.7933 H   0  0  0  0  0  0  0  0  0  0  0  0
  111.4236   63.5582   33.1546 H   0  0  0  0  0  0  0  0  0  0  0  0
  110.6567   63.6996   35.3651 H   0  0  0  0  0  0  0  0  0  0  0  0
  112.2442   66.1999   35.9359 H   0  0  0  0  0  0  0  0  0  0  0  0
  112.9404   64.5266   36.0374 H   0  0  0  0  0  0  0  0  0  0  0  0
  1  2  2  0
  1  3  1  0
  2  4  1  0
  3  5  2  0
  4 10  2  0
  5 10  1  0
  6  7  2  0
  6  9  1  0
  7 17  1  0
  8  9  2  0
  8 17  1  0
  9 11  1  0
 10 14  1  0
 11 15  2  0
 11 16  1  0
 12 13  1  0
 12 16  1  0
 13 14  1  0
 13 15  1  0
  1 18  1  0
  2 19  1  0
  3 20  1  0
  4 21  1  0
  5 22  1  0
  6 23  1  0
  7 24  1  0
  8 25  1  0
 12 26  1  0
 12 27  1  0
 13 28  1  1
 14 29  1  0
 14 30  1  0
M  END
>  <s_m_entry_id>  (99) 
21882

>  <s_m_Source_Path>  (99) 
C:\Users\vinicius\Downloads\Ligands_Ecoli

>  <s_m_Source_File>  (99) 
Ligands_Ecoli_o.sdf

>  <i_m_Source_File_Index>  (99) 
45

>  <i_f3d_flags>  (99) 
0

>  <r_epik_Ionization_Penalty>  (99) 
  0.0006

>  <r_epik_State_Penalty>  (99) 
  0.0004

>  <i_epik_Tot_Q>  (99) 
0

>  <s_m_job_name>  (99) 
ligs_ecFabI_ligprep_2

>  <class_value>  (99) 
0

>  <FRED Chemgauss4 score>  (99) 
-14.200464

>  <Name>  (99) 
CHEMBL304450

>  <Set>  (99) 
training

>  <HBA count>  (99) 
3

>  <HBD count>  (99) 
0

>  <ExactMolWt>  (99) 
243.071785036

>  <NumRotatableBounds>  (99) 
3

>  <FractionCsp3>  (99) 
0.21428571428571427

>  <TPSA>  (99) 
21.59

>  <LogP_WildmanCrippen>  (99) 
3.1362000000000014

>  <General_Cluster>  (99) 
2

>  <Biological_Cluster>  (99) 
2

>  <Physicochemical_Cluster>  (99) 
6

>  <Structural_Cluster>  (99) 
1

$$$$
CHEMBL566655
     RDKit          3D

 49 52  0  0  0  0  0  0  0  0999 V2000
  108.9189   69.9353   31.5130 C   0  0  0  0  0  0  0  0  0  0  0  0
  107.7928   69.1366   31.3732 C   0  0  0  0  0  0  0  0  0  0  0  0
  110.0674   69.4337   32.1311 C   0  0  0  0  0  0  0  0  0  0  0  0
  107.7891   67.8230   31.8460 C   0  0  0  0  0  0  0  0  0  0  0  0
  109.6014   64.6778   40.6281 C   0  0  0  0  0  0  0  0  0  0  0  0
  109.6276   67.0234   41.0013 C   0  0  0  0  0  0  0  0  0  0  0  0
  110.0954   68.1056   32.6212 C   0  0  0  0  0  0  0  0  0  0  0  0
  109.9001   65.9539   40.1668 C   0  0  0  0  0  0  0  0  0  0  0  0
  109.0632   64.5083   41.9046 C   0  0  0  0  0  0  0  0  0  0  0  0
  111.1401   67.3762   33.2820 C   0  0  0  0  0  0  0  0  0  0  0  0
  108.9486   67.3203   32.4685 C   0  0  0  0  0  0  0  0  0  0  0  0
  110.7733   66.0917   33.6063 C   0  0  0  0  0  0  0  0  0  0  0  0
  108.8301   65.6480   42.6734 C   0  0  0  0  0  0  0  0  0  0  0  0
  108.0810   64.2929   44.5938 C   0  0  0  0  0  0  0  0  0  0  0  0
  110.4660   66.1600   38.8461 C   0  0  0  0  0  0  0  0  0  0  0  0
  111.1025   65.2179   38.1109 C   0  0  0  0  0  0  0  0  0  0  0  0
  111.6716   65.5634   36.7749 C   0  0  0  0  0  0  0  0  0  0  0  0
  108.6382   63.1606   42.4039 C   0  0  0  0  0  0  0  0  0  0  0  0
  108.7215   63.0961   43.9207 C   0  0  0  0  0  0  0  0  0  0  0  0
  112.4779   67.9475   33.5846 C   0  0  0  0  0  0  0  0  0  0  0  0
  110.1221   63.8538   35.9071 C   0  0  0  0  0  0  0  0  0  0  0  0
  111.5783   65.0286   34.2963 C   0  0  0  0  0  0  0  0  0  0  0  0
  109.0940   66.9025   42.2374 N   0  0  0  0  0  0  0  0  0  0  0  0
  108.2648   65.5032   43.9548 N   0  0  0  0  0  0  0  0  0  0  0  0
  111.1660   64.8464   35.6868 N   0  0  0  0  0  0  0  0  0  0  0  0
  107.5208   64.1887   45.6849 O   0  0  0  0  0  0  0  0  0  0  0  0
  112.5522   66.4203   36.6880 O   0  0  0  0  0  0  0  0  0  0  0  0
  109.1761   65.7420   33.1248 S   0  0  0  0  0  0  0  0  0  0  0  0
  108.9074   70.9684   31.1354 H   0  0  0  0  0  0  0  0  0  0  0  0
  106.8944   69.5424   30.8851 H   0  0  0  0  0  0  0  0  0  0  0  0
  110.9551   70.0745   32.2376 H   0  0  0  0  0  0  0  0  0  0  0  0
  106.8957   67.1910   31.7343 H   0  0  0  0  0  0  0  0  0  0  0  0
  109.7888   63.8027   39.9884 H   0  0  0  0  0  0  0  0  0  0  0  0
  109.8596   68.0348   40.6362 H   0  0  0  0  0  0  0  0  0  0  0  0
  110.3699   67.1638   38.4066 H   0  0  0  0  0  0  0  0  0  0  0  0
  111.2006   64.1936   38.4998 H   0  0  0  0  0  0  0  0  0  0  0  0
  107.6008   62.9708   42.0913 H   0  0  0  0  0  0  0  0  0  0  0  0
  109.3107   62.3997   41.9811 H   0  0  0  0  0  0  0  0  0  0  0  0
  109.7810   63.0533   44.2133 H   0  0  0  0  0  0  0  0  0  0  0  0
  108.1728   62.1997   44.2454 H   0  0  0  0  0  0  0  0  0  0  0  0
  112.6138   68.0055   34.6746 H   0  0  0  0  0  0  0  0  0  0  0  0
  113.2579   67.3040   33.1516 H   0  0  0  0  0  0  0  0  0  0  0  0
  112.5524   68.9559   33.1516 H   0  0  0  0  0  0  0  0  0  0  0  0
  109.9731   63.7121   36.9877 H   0  0  0  0  0  0  0  0  0  0  0  0
  109.1837   64.2009   35.4499 H   0  0  0  0  0  0  0  0  0  0  0  0
  110.4215   62.8991   35.4499 H   0  0  0  0  0  0  0  0  0  0  0  0
  111.4459   64.0779   33.7590 H   0  0  0  0  0  0  0  0  0  0  0  0
  112.6321   65.3439   34.2926 H   0  0  0  0  0  0  0  0  0  0  0  0
  107.9685   66.3572   44.4486 H   0  0  0  0  0  0  0  0  0  0  0  0
  1  2  2  0
  1  3  1  0
  2  4  1  0
  3  7  2  0
  4 11  2  0
  5  8  2  0
  5  9  1  0
  6  8  1  0
  6 23  2  0
  7 10  1  0
  7 11  1  0
  8 15  1  0
  9 13  2  0
  9 18  1  0
 10 12  2  0
 10 20  1  0
 11 28  1  0
 12 22  1  0
 12 28  1  0
 13 23  1  0
 13 24  1  0
 14 19  1  0
 14 24  1  0
 14 26  2  0
 15 16  2  0
 16 17  1  0
 17 25  1  0
 17 27  2  0
 18 19  1  0
 21 25  1  0
 22 25  1  0
  1 29  1  0
  2 30  1  0
  3 31  1  0
  4 32  1  0
  5 33  1  0
  6 34  1  0
 15 35  1  0
 16 36  1  0
 18 37  1  0
 18 38  1  0
 19 39  1  0
 19 40  1  0
 20 41  1  0
 20 42  1  0
 20 43  1  0
 21 44  1  0
 21 45  1  0
 21 46  1  0
 22 47  1  0
 22 48  1  0
 24 49  1  0
M  END
>  <s_m_entry_id>  (100) 
21966

>  <s_m_Source_Path>  (100) 
C:\Users\vinicius\Downloads\Ligands_Ecoli

>  <s_m_Source_File>  (100) 
Ligands_Ecoli_o.sdf

>  <i_m_Source_File_Index>  (100) 
84

>  <i_f3d_flags>  (100) 
0

>  <r_lp_tautomer_probability>  (100) 
1

>  <r_epik_Ionization_Penalty>  (100) 
  0.0001

>  <r_epik_State_Penalty>  (100) 
  0.0000

>  <i_epik_Tot_Q>  (100) 
0

>  <s_m_job_name>  (100) 
ligs_ecFabI_ligprep_2

>  <class_value>  (100) 
1

>  <FRED Chemgauss4 score>  (100) 
-14.523407

>  <Name>  (100) 
CHEMBL566655

>  <Set>  (100) 
training

>  <HBA count>  (100) 
4

>  <HBD count>  (100) 
1

>  <ExactMolWt>  (100) 
391.1354479120006

>  <NumRotatableBounds>  (100) 
6

>  <FractionCsp3>  (100) 
0.22727272727272727

>  <TPSA>  (100) 
62.300000000000004

>  <LogP_WildmanCrippen>  (100) 
4.161220000000004

>  <General_Cluster>  (100) 
1

>  <Biological_Cluster>  (100) 
1

>  <Physicochemical_Cluster>  (100) 
3

>  <Structural_Cluster>  (100) 
7

$$$$
CHEMBL367881
     RDKit          3D

 40 42  0  0  1  0  0  0  0  0999 V2000
  109.8222   66.3372   33.1731 C   0  0  0  0  0  0  0  0  0  0  0  0
  110.8021   65.0874   35.0227 C   0  0  0  0  0  0  0  0  0  0  0  0
  111.7173   64.8438   32.8327 C   0  0  0  0  0  0  0  0  0  0  0  0
  111.7351   64.4996   34.1881 C   0  0  0  0  0  0  0  0  0  0  0  0
  109.8607   65.9880   34.5069 C   0  0  0  0  0  0  0  0  0  0  0  0
  110.7692   65.7537   32.3301 C   0  0  0  0  0  0  0  0  0  0  0  0
  109.3101   66.6010   37.8667 C   0  0  0  0  0  0  0  0  0  0  0  0
  111.3225   65.6020   38.8286 C   0  0  0  0  0  0  0  0  0  0  0  0
  110.1549   66.2543   38.9944 C   0  0  0  0  0  0  0  0  0  0  0  0
  109.5050   65.9879   36.6932 C   0  0  0  0  0  0  0  0  0  0  0  0
  111.6793   65.1192   37.4465 C   0  0  0  0  0  0  0  0  0  0  0  0
  108.8337   67.2823   32.6762 C   0  0  0  0  0  0  0  0  0  0  0  0
  112.2477   65.3654   39.9475 C   0  0  0  0  0  0  0  0  0  0  0  0
  110.5219   64.8835   36.4810 C   0  0  2  0  0  0  0  0  0  0  0  0
  112.7002   64.2491   31.8626 C   0  0  0  0  0  0  0  0  0  0  0  0
  108.8418   68.6646   33.2606 C   0  0  0  0  0  0  0  0  0  0  0  0
  112.7985   66.5651   40.6704 C   0  0  0  0  0  0  0  0  0  0  0  0
  109.8928   63.5074   36.7457 C   0  0  0  0  0  0  0  0  0  0  0  0
  112.5745   63.6295   34.6149 O   0  0  0  0  0  1  0  0  0  0  0  0
  112.8556   64.8886   37.1792 O   0  0  0  0  0  0  0  0  0  0  0  0
  107.9880   67.0316   31.8155 O   0  0  0  0  0  0  0  0  0  0  0  0
  112.5580   64.2187   40.2663 O   0  0  0  0  0  0  0  0  0  0  0  0
  109.0197   66.4779   35.4827 O   0  0  0  0  0  0  0  0  0  0  0  0
  110.7735   66.0700   31.0006 O   0  0  0  0  0  0  0  0  0  0  0  0
  109.6700   66.7513   40.1827 O   0  0  0  0  0  0  0  0  0  0  0  0
  108.5195   67.3581   37.9750 H   0  0  0  0  0  0  0  0  0  0  0  0
  113.5124   63.7577   32.4184 H   0  0  0  0  0  0  0  0  0  0  0  0
  112.1887   63.5088   31.2298 H   0  0  0  0  0  0  0  0  0  0  0  0
  113.1186   65.0457   31.2298 H   0  0  0  0  0  0  0  0  0  0  0  0
  108.8414   68.5985   34.3586 H   0  0  0  0  0  0  0  0  0  0  0  0
  109.7431   69.1990   32.9258 H   0  0  0  0  0  0  0  0  0  0  0  0
  107.9468   69.2095   32.9258 H   0  0  0  0  0  0  0  0  0  0  0  0
  112.7248   66.4047   41.7561 H   0  0  0  0  0  0  0  0  0  0  0  0
  113.8528   66.7090   40.3917 H   0  0  0  0  0  0  0  0  0  0  0  0
  112.2204   67.4585   40.3917 H   0  0  0  0  0  0  0  0  0  0  0  0
  109.8169   63.3415   37.8305 H   0  0  0  0  0  0  0  0  0  0  0  0
  108.8886   63.4711   36.2981 H   0  0  0  0  0  0  0  0  0  0  0  0
  110.5223   62.7242   36.2981 H   0  0  0  0  0  0  0  0  0  0  0  0
  111.4422   65.6601   30.3964 H   0  0  0  0  0  0  0  0  0  0  0  0
  110.1591   66.5816   41.0266 H   0  0  0  0  0  0  0  0  0  0  0  0
  1  5  2  0
  1  6  1  0
  1 12  1  0
  2  4  2  0
  2  5  1  0
  2 14  1  0
  3  4  1  0
  3  6  2  0
  3 15  1  0
  4 19  1  0
  5 23  1  0
  6 24  1  0
  7  9  1  0
  7 10  2  0
  8  9  2  0
  8 11  1  0
  8 13  1  0
  9 25  1  0
 10 14  1  0
 10 23  1  0
 11 14  1  0
 11 20  2  0
 12 16  1  0
 12 21  2  0
 13 17  1  0
 13 22  2  0
 14 18  1  6
  7 26  1  0
 15 27  1  0
 15 28  1  0
 15 29  1  0
 16 30  1  0
 16 31  1  0
 16 32  1  0
 17 33  1  0
 17 34  1  0
 17 35  1  0
 18 36  1  0
 18 37  1  0
 18 38  1  0
 24 39  1  0
 25 40  1  0
M  CHG  1  19  -1
M  END
>  <s_m_entry_id>  (101) 
22008

>  <s_m_Source_Path>  (101) 
C:\Users\vinicius\Downloads\Ligands_Ecoli

>  <s_m_Source_File>  (101) 
Ligands_Ecoli_o.sdf

>  <i_m_Source_File_Index>  (101) 
103

>  <i_f3d_flags>  (101) 
0

>  <r_epik_Ionization_Penalty>  (101) 
  1.2605

>  <r_epik_State_Penalty>  (101) 
  1.5951

>  <i_epik_Tot_Q>  (101) 
-1

>  <s_m_job_name>  (101) 
ligs_ecFabI_ligprep_2

>  <class_value>  (101) 
0

>  <FRED Chemgauss4 score>  (101) 
-11.206242

>  <Name>  (101) 
CHEMBL367881

>  <Set>  (101) 
training

>  <HBA count>  (101) 
7

>  <HBD count>  (101) 
2

>  <ExactMolWt>  (101) 
343.0823263999103

>  <NumRotatableBounds>  (101) 
8

>  <FractionCsp3>  (101) 
0.2777777777777778

>  <TPSA>  (101) 
123.96000000000001

>  <LogP_WildmanCrippen>  (101) 
1.4946199999999994

>  <General_Cluster>  (101) 
5

>  <Biological_Cluster>  (101) 
2

>  <Physicochemical_Cluster>  (101) 
8

>  <Structural_Cluster>  (101) 
2

$$$$
CHEMBL421119
     RDKit          3D

 53 57  0  0  0  0  0  0  0  0999 V2000
  109.3617   69.1684   43.1059 C   0  0  0  0  0  0  0  0  0  0  0  0
  109.2999   68.2090   44.1143 C   0  0  0  0  0  0  0  0  0  0  0  0
  109.8515   68.8425   41.8362 C   0  0  0  0  0  0  0  0  0  0  0  0
  109.7547   65.4541   36.2390 C   0  0  0  0  0  0  0  0  0  0  0  0
  111.7481   64.8240   35.0281 C   0  0  0  0  0  0  0  0  0  0  0  0
  108.9103   63.2426   44.2714 C   0  0  0  0  0  0  0  0  0  0  0  0
  108.7334   63.1122   41.8654 C   0  0  0  0  0  0  0  0  0  0  0  0
  109.7239   66.8966   43.8874 C   0  0  0  0  0  0  0  0  0  0  0  0
  107.6666   62.6236   44.3964 C   0  0  0  0  0  0  0  0  0  0  0  0
  107.4897   62.4932   41.9904 C   0  0  0  0  0  0  0  0  0  0  0  0
  109.2509   66.0661   35.0914 C   0  0  0  0  0  0  0  0  0  0  0  0
  111.2443   65.4361   33.8804 C   0  0  0  0  0  0  0  0  0  0  0  0
  110.2860   67.5260   41.5823 C   0  0  0  0  0  0  0  0  0  0  0  0
  111.0033   64.8331   36.2074 C   0  0  0  0  0  0  0  0  0  0  0  0
  110.8246   66.8562   40.4502 C   0  0  0  0  0  0  0  0  0  0  0  0
  109.4437   63.4870   43.0058 C   0  0  0  0  0  0  0  0  0  0  0  0
  110.2114   66.5828   42.6135 C   0  0  0  0  0  0  0  0  0  0  0  0
  106.9563   62.2489   43.2559 C   0  0  0  0  0  0  0  0  0  0  0  0
  109.9957   66.0571   33.9120 C   0  0  0  0  0  0  0  0  0  0  0  0
  111.0557   65.5457   40.8112 C   0  0  0  0  0  0  0  0  0  0  0  0
  111.5346   64.1875   37.4175 C   0  0  0  0  0  0  0  0  0  0  0  0
  111.1200   67.3428   39.0755 C   0  0  0  0  0  0  0  0  0  0  0  0
  111.6218   64.4743   39.9509 C   0  0  0  0  0  0  0  0  0  0  0  0
  112.1172   66.3938   38.3890 C   0  0  0  0  0  0  0  0  0  0  0  0
  110.7852   64.1551   42.8699 C   0  0  0  0  0  0  0  0  0  0  0  0
  110.6878   65.3877   42.1166 N   0  0  0  0  0  0  0  0  0  0  0  0
  111.7288   64.9768   38.5573 N   0  0  0  0  0  0  0  0  0  0  0  0
  105.6997   61.6213   43.3819 N   0  0  0  0  0  0  0  0  0  0  0  0
  111.7656   62.9818   37.3357 O   0  0  0  0  0  0  0  0  0  0  0  0
  109.5045   66.6544   32.7920 O   0  0  0  0  0  0  0  0  0  0  0  0
  109.0214   70.1943   43.3103 H   0  0  0  0  0  0  0  0  0  0  0  0
  108.9113   68.4888   45.1046 H   0  0  0  0  0  0  0  0  0  0  0  0
  109.8969   69.6054   41.0450 H   0  0  0  0  0  0  0  0  0  0  0  0
  109.1673   65.4612   37.1690 H   0  0  0  0  0  0  0  0  0  0  0  0
  112.7327   64.3342   35.0031 H   0  0  0  0  0  0  0  0  0  0  0  0
  109.4705   63.5380   45.1708 H   0  0  0  0  0  0  0  0  0  0  0  0
  109.1541   63.3048   40.8674 H   0  0  0  0  0  0  0  0  0  0  0  0
  109.6761   66.1373   44.6819 H   0  0  0  0  0  0  0  0  0  0  0  0
  107.2459   62.4309   45.3944 H   0  0  0  0  0  0  0  0  0  0  0  0
  106.9295   62.1977   41.0910 H   0  0  0  0  0  0  0  0  0  0  0  0
  108.2663   66.5559   35.1164 H   0  0  0  0  0  0  0  0  0  0  0  0
  111.8317   65.4291   32.9504 H   0  0  0  0  0  0  0  0  0  0  0  0
  110.1880   67.3771   38.4923 H   0  0  0  0  0  0  0  0  0  0  0  0
  111.5586   68.3499   39.1335 H   0  0  0  0  0  0  0  0  0  0  0  0
  112.6198   64.1946   40.3194 H   0  0  0  0  0  0  0  0  0  0  0  0
  110.9658   63.5917   39.9776 H   0  0  0  0  0  0  0  0  0  0  0  0
  112.1513   66.6289   37.3150 H   0  0  0  0  0  0  0  0  0  0  0  0
  113.1031   66.5367   38.8555 H   0  0  0  0  0  0  0  0  0  0  0  0
  111.1768   64.3788   43.8732 H   0  0  0  0  0  0  0  0  0  0  0  0
  111.4588   63.4725   42.3311 H   0  0  0  0  0  0  0  0  0  0  0  0
  105.1754   61.3447   42.5396 H   0  0  0  0  0  0  0  0  0  0  0  0
  105.3062   61.4395   44.3163 H   0  0  0  0  0  0  0  0  0  0  0  0
  110.0333   66.6479   31.9551 H   0  0  0  0  0  0  0  0  0  0  0  0
  1  2  2  0
  1  3  1  0
  2  8  1  0
  3 13  2  0
  4 11  2  0
  4 14  1  0
  5 12  1  0
  5 14  2  0
  6  9  2  0
  6 16  1  0
  7 10  1  0
  7 16  2  0
  8 17  2  0
  9 18  1  0
 10 18  2  0
 11 19  1  0
 12 19  2  0
 13 15  1  0
 13 17  1  0
 14 21  1  0
 15 20  2  0
 15 22  1  0
 16 25  1  0
 17 26  1  0
 18 28  1  0
 19 30  1  0
 20 23  1  0
 20 26  1  0
 21 27  1  0
 21 29  2  0
 22 24  1  0
 23 27  1  0
 24 27  1  0
 25 26  1  0
  1 31  1  0
  2 32  1  0
  3 33  1  0
  4 34  1  0
  5 35  1  0
  6 36  1  0
  7 37  1  0
  8 38  1  0
  9 39  1  0
 10 40  1  0
 11 41  1  0
 12 42  1  0
 22 43  1  0
 22 44  1  0
 23 45  1  0
 23 46  1  0
 24 47  1  0
 24 48  1  0
 25 49  1  0
 25 50  1  0
 28 51  1  0
 28 52  1  0
 30 53  1  0
M  END
>  <s_m_entry_id>  (102) 
21853

>  <s_m_Source_Path>  (102) 
C:\Users\vinicius\Downloads\Ligands_Ecoli

>  <s_m_Source_File>  (102) 
Ligands_Ecoli_o.sdf

>  <i_m_Source_File_Index>  (102) 
30

>  <i_f3d_flags>  (102) 
0

>  <r_lp_tautomer_probability>  (102) 
0.999999999997365

>  <r_epik_Ionization_Penalty>  (102) 
  0.0367

>  <r_epik_State_Penalty>  (102) 
  0.0299

>  <i_epik_Tot_Q>  (102) 
0

>  <s_m_job_name>  (102) 
ligs_ecFabI_ligprep_2

>  <class_value>  (102) 
0

>  <FRED Chemgauss4 score>  (102) 
-12.530233

>  <Name>  (102) 
CHEMBL421119

>  <Set>  (102) 
training

>  <HBA count>  (102) 
4

>  <HBD count>  (102) 
2

>  <ExactMolWt>  (102) 
397.17902697600067

>  <NumRotatableBounds>  (102) 
5

>  <FractionCsp3>  (102) 
0.16

>  <TPSA>  (102) 
71.49

>  <LogP_WildmanCrippen>  (102) 
4.175900000000003

>  <General_Cluster>  (102) 
1

>  <Biological_Cluster>  (102) 
2

>  <Physicochemical_Cluster>  (102) 
3

>  <Structural_Cluster>  (102) 
7

$$$$
CHEMBL567711
     RDKit          3D

 64 68  0  0  0  0  0  0  0  0999 V2000
  108.8964   69.6955   32.1833 C   0  0  0  0  0  0  0  0  0  0  0  0
  110.2304   69.5705   31.7870 C   0  0  0  0  0  0  0  0  0  0  0  0
  108.2813   68.7134   32.9718 C   0  0  0  0  0  0  0  0  0  0  0  0
  110.9977   68.4636   32.1622 C   0  0  0  0  0  0  0  0  0  0  0  0
  110.6769   65.9714   39.5299 C   0  0  0  0  0  0  0  0  0  0  0  0
  112.8054   65.7863   40.5671 C   0  0  0  0  0  0  0  0  0  0  0  0
  109.0343   67.5917   33.3609 C   0  0  0  0  0  0  0  0  0  0  0  0
  112.0159   65.6105   39.4445 C   0  0  0  0  0  0  0  0  0  0  0  0
  110.1680   66.4740   40.7281 C   0  0  0  0  0  0  0  0  0  0  0  0
  108.7921   66.4218   34.1280 C   0  0  0  0  0  0  0  0  0  0  0  0
  110.3592   67.5042   32.9459 C   0  0  0  0  0  0  0  0  0  0  0  0
  109.9687   65.7089   34.1300 C   0  0  0  0  0  0  0  0  0  0  0  0
  111.0406   66.6084   41.8041 C   0  0  0  0  0  0  0  0  0  0  0  0
  109.2200   67.4050   43.2741 C   0  0  0  0  0  0  0  0  0  0  0  0
  112.5719   65.0796   38.2133 C   0  0  0  0  0  0  0  0  0  0  0  0
  112.0310   65.2291   36.9811 C   0  0  0  0  0  0  0  0  0  0  0  0
  112.6832   64.6052   35.7921 C   0  0  0  0  0  0  0  0  0  0  0  0
  108.7526   66.9559   40.8441 C   0  0  0  0  0  0  0  0  0  0  0  0
  106.8413   67.5443   42.3543 C   0  0  0  0  0  0  0  0  0  0  0  0
  107.9820   65.3073   42.6148 C   0  0  0  0  0  0  0  0  0  0  0  0
  105.9961   67.1996   43.5858 C   0  0  0  0  0  0  0  0  0  0  0  0
  107.1307   65.0885   43.8682 C   0  0  0  0  0  0  0  0  0  0  0  0
  108.1985   66.8047   42.2812 C   0  0  0  0  0  0  0  0  0  0  0  0
  107.5306   66.0428   34.7927 C   0  0  0  0  0  0  0  0  0  0  0  0
  104.9824   65.4510   44.8911 C   0  0  0  0  0  0  0  0  0  0  0  0
  112.3892   63.5896   33.5654 C   0  0  0  0  0  0  0  0  0  0  0  0
  110.3799   64.4034   34.7469 C   0  0  0  0  0  0  0  0  0  0  0  0
  112.3532   66.2832   41.7400 N   0  0  0  0  0  0  0  0  0  0  0  0
  110.5518   67.1422   43.0093 N   0  0  0  0  0  0  0  0  0  0  0  0
  105.8295   65.7510   43.7368 N   0  0  0  0  0  0  0  0  0  0  0  0
  111.8316   64.2322   34.7484 N   0  0  0  0  0  0  0  0  0  0  0  0
  108.8798   68.0123   44.2902 O   0  0  0  0  0  0  0  0  0  0  0  0
  113.9020   64.4265   35.7863 O   0  0  0  0  0  0  0  0  0  0  0  0
  110.9255   66.3570   33.4156 O   0  0  0  0  0  0  0  0  0  0  0  0
  108.3197   70.5788   31.8715 H   0  0  0  0  0  0  0  0  0  0  0  0
  110.6855   70.3578   31.1681 H   0  0  0  0  0  0  0  0  0  0  0  0
  107.2306   68.8182   33.2800 H   0  0  0  0  0  0  0  0  0  0  0  0
  112.0485   68.3558   31.8554 H   0  0  0  0  0  0  0  0  0  0  0  0
  110.0194   65.8612   38.6549 H   0  0  0  0  0  0  0  0  0  0  0  0
  113.8666   65.5043   40.5010 H   0  0  0  0  0  0  0  0  0  0  0  0
  113.5095   64.5091   38.2874 H   0  0  0  0  0  0  0  0  0  0  0  0
  111.1071   65.8128   36.8557 H   0  0  0  0  0  0  0  0  0  0  0  0
  108.7158   68.0180   40.5604 H   0  0  0  0  0  0  0  0  0  0  0  0
  108.1311   66.3409   40.1766 H   0  0  0  0  0  0  0  0  0  0  0  0
  106.2608   67.2871   41.4560 H   0  0  0  0  0  0  0  0  0  0  0  0
  107.0727   68.6175   42.4236 H   0  0  0  0  0  0  0  0  0  0  0  0
  108.9644   64.8381   42.7725 H   0  0  0  0  0  0  0  0  0  0  0  0
  107.4419   64.8574   41.7687 H   0  0  0  0  0  0  0  0  0  0  0  0
  106.4932   67.5973   44.4828 H   0  0  0  0  0  0  0  0  0  0  0  0
  105.0005   67.6492   43.4570 H   0  0  0  0  0  0  0  0  0  0  0  0
  106.9729   64.0095   44.0130 H   0  0  0  0  0  0  0  0  0  0  0  0
  107.6590   65.5179   44.7322 H   0  0  0  0  0  0  0  0  0  0  0  0
  107.6646   66.0830   35.8838 H   0  0  0  0  0  0  0  0  0  0  0  0
  106.7349   66.7416   34.4949 H   0  0  0  0  0  0  0  0  0  0  0  0
  107.2518   65.0212   34.4949 H   0  0  0  0  0  0  0  0  0  0  0  0
  105.5415   65.6490   45.8175 H   0  0  0  0  0  0  0  0  0  0  0  0
  104.0846   66.0858   44.8619 H   0  0  0  0  0  0  0  0  0  0  0  0
  104.6842   64.3926   44.8619 H   0  0  0  0  0  0  0  0  0  0  0  0
  113.0813   62.7920   33.8733 H   0  0  0  0  0  0  0  0  0  0  0  0
  111.5752   63.1572   32.9650 H   0  0  0  0  0  0  0  0  0  0  0  0
  112.9320   64.3345   32.9650 H   0  0  0  0  0  0  0  0  0  0  0  0
  110.0173   64.3712   35.7849 H   0  0  0  0  0  0  0  0  0  0  0  0
  109.9424   63.5914   34.1475 H   0  0  0  0  0  0  0  0  0  0  0  0
  111.2360   67.3532   43.7498 H   0  0  0  0  0  0  0  0  0  0  0  0
  1  2  2  0
  1  3  1  0
  2  4  1  0
  3  7  2  0
  4 11  2  0
  5  8  2  0
  5  9  1  0
  6  8  1  0
  6 28  2  0
  7 10  1  0
  7 11  1  0
  8 15  1  0
  9 13  2  0
  9 18  1  0
 10 12  2  0
 10 24  1  0
 11 34  1  0
 12 27  1  0
 12 34  1  0
 13 28  1  0
 13 29  1  0
 14 23  1  0
 14 29  1  0
 14 32  2  0
 15 16  2  0
 16 17  1  0
 17 31  1  0
 17 33  2  0
 18 23  1  0
 19 21  1  0
 19 23  1  0
 20 22  1  0
 20 23  1  0
 21 30  1  0
 22 30  1  0
 25 30  1  0
 26 31  1  0
 27 31  1  0
  1 35  1  0
  2 36  1  0
  3 37  1  0
  4 38  1  0
  5 39  1  0
  6 40  1  0
 15 41  1  0
 16 42  1  0
 18 43  1  0
 18 44  1  0
 19 45  1  0
 19 46  1  0
 20 47  1  0
 20 48  1  0
 21 49  1  0
 21 50  1  0
 22 51  1  0
 22 52  1  0
 24 53  1  0
 24 54  1  0
 24 55  1  0
 25 56  1  0
 25 57  1  0
 25 58  1  0
 26 59  1  0
 26 60  1  0
 26 61  1  0
 27 62  1  0
 27 63  1  0
 29 64  1  0
M  END
>  <s_m_entry_id>  (103) 
21999

>  <s_m_Source_Path>  (103) 
C:\Users\vinicius\Downloads\Ligands_Ecoli

>  <s_m_Source_File>  (103) 
Ligands_Ecoli_o.sdf

>  <i_m_Source_File_Index>  (103) 
100

>  <i_f3d_flags>  (103) 
0

>  <r_epik_Ionization_Penalty>  (103) 
  2.1744

>  <r_epik_State_Penalty>  (103) 
  2.3158

>  <i_epik_Tot_Q>  (103) 
0

>  <s_m_job_name>  (103) 
ligs_ecFabI_ligprep_2

>  <class_value>  (103) 
1

>  <FRED Chemgauss4 score>  (103) 
-13.391921

>  <Name>  (103) 
CHEMBL567711

>  <Set>  (103) 
training

>  <HBA count>  (103) 
5

>  <HBD count>  (103) 
1

>  <ExactMolWt>  (103) 
458.23179082000087

>  <NumRotatableBounds>  (103) 
7

>  <FractionCsp3>  (103) 
0.37037037037037035

>  <TPSA>  (103) 
78.68

>  <LogP_WildmanCrippen>  (103) 
4.014620000000003

>  <General_Cluster>  (103) 
4

>  <Biological_Cluster>  (103) 
1

>  <Physicochemical_Cluster>  (103) 
4

>  <Structural_Cluster>  (103) 
5

$$$$
CHEMBL2178300
     RDKit          3D

 34 35  0  0  0  0  0  0  0  0999 V2000
  111.8770   66.3114   38.7359 C   0  0  0  0  0  0  0  0  0  0  0  0
  109.0457   66.3218   33.9947 C   0  0  0  0  0  0  0  0  0  0  0  0
  111.3107   65.7587   37.5873 C   0  0  0  0  0  0  0  0  0  0  0  0
  109.1089   65.5219   35.1356 C   0  0  0  0  0  0  0  0  0  0  0  0
  111.3996   64.2779   39.9500 C   0  0  0  0  0  0  0  0  0  0  0  0
  111.1992   65.4849   33.2885 C   0  0  0  0  0  0  0  0  0  0  0  0
  111.9215   65.5710   39.9173 C   0  0  0  0  0  0  0  0  0  0  0  0
  110.0908   66.3032   33.0711 C   0  0  0  0  0  0  0  0  0  0  0  0
  111.2626   64.6850   34.4295 C   0  0  0  0  0  0  0  0  0  0  0  0
  110.2174   64.7036   35.3531 C   0  0  0  0  0  0  0  0  0  0  0  0
  110.7888   64.4655   37.6200 C   0  0  0  0  0  0  0  0  0  0  0  0
  110.8333   63.7251   38.8014 C   0  0  0  0  0  0  0  0  0  0  0  0
  112.5116   66.1473   41.1152 C   0  0  0  0  0  0  0  0  0  0  0  0
  111.9712   65.6953   42.4407 C   0  0  0  0  0  0  0  0  0  0  0  0
  110.6327   68.5403   32.0770 C   0  0  0  0  0  0  0  0  0  0  0  0
  110.0229   67.1592   31.8516 C   0  0  0  0  0  0  0  0  0  0  0  0
  112.2896   63.9384   34.6137 O   0  0  0  0  0  1  0  0  0  0  0  0
  113.4185   66.9822   41.1244 O   0  0  0  0  0  0  0  0  0  0  0  0
  110.2363   63.9263   36.4990 O   0  0  0  0  0  0  0  0  0  0  0  0
  110.3341   62.4819   38.8395 F   0  0  0  0  0  0  0  0  0  0  0  0
  112.2885   67.3312   38.7101 H   0  0  0  0  0  0  0  0  0  0  0  0
  108.1717   66.9673   33.8233 H   0  0  0  0  0  0  0  0  0  0  0  0
  111.2756   66.3426   36.6557 H   0  0  0  0  0  0  0  0  0  0  0  0
  108.2846   65.5364   35.8638 H   0  0  0  0  0  0  0  0  0  0  0  0
  111.4346   63.6941   40.8816 H   0  0  0  0  0  0  0  0  0  0  0  0
  112.0234   65.4703   32.5601 H   0  0  0  0  0  0  0  0  0  0  0  0
  112.5417   66.1724   43.2512 H   0  0  0  0  0  0  0  0  0  0  0  0
  110.9117   65.9800   42.5211 H   0  0  0  0  0  0  0  0  0  0  0  0
  112.0642   64.6022   42.5211 H   0  0  0  0  0  0  0  0  0  0  0  0
  110.7173   68.7320   33.1569 H   0  0  0  0  0  0  0  0  0  0  0  0
  111.6317   68.5793   31.6183 H   0  0  0  0  0  0  0  0  0  0  0  0
  109.9885   69.3049   31.6183 H   0  0  0  0  0  0  0  0  0  0  0  0
  110.5697   66.6598   31.0383 H   0  0  0  0  0  0  0  0  0  0  0  0
  108.9618   67.2979   31.5972 H   0  0  0  0  0  0  0  0  0  0  0  0
  1  3  2  0
  1  7  1  0
  2  4  2  0
  2  8  1  0
  3 11  1  0
  4 10  1  0
  5  7  2  0
  5 12  1  0
  6  8  2  0
  6  9  1  0
  7 13  1  0
  8 16  1  0
  9 10  2  0
  9 17  1  0
 10 19  1  0
 11 12  2  0
 11 19  1  0
 12 20  1  0
 13 14  1  0
 13 18  2  0
 15 16  1  0
  1 21  1  0
  2 22  1  0
  3 23  1  0
  4 24  1  0
  5 25  1  0
  6 26  1  0
 14 27  1  0
 14 28  1  0
 14 29  1  0
 15 30  1  0
 15 31  1  0
 15 32  1  0
 16 33  1  0
 16 34  1  0
M  CHG  1  17  -1
M  END
>  <s_m_entry_id>  (104) 
22036

>  <s_m_Source_Path>  (104) 
C:\Users\vinicius\Downloads\Ligands_Ecoli

>  <s_m_Source_File>  (104) 
Ligands_Ecoli_o.sdf

>  <i_m_Source_File_Index>  (104) 
120

>  <i_f3d_flags>  (104) 
0

>  <r_lp_tautomer_probability>  (104) 
0.99995

>  <r_epik_Ionization_Penalty>  (104) 
  1.3104

>  <r_epik_State_Penalty>  (104) 
  1.3851

>  <i_epik_Tot_Q>  (104) 
-1

>  <s_m_job_name>  (104) 
ligs_ecFabI_ligprep_2

>  <class_value>  (104) 
1

>  <FRED Chemgauss4 score>  (104) 
-16.338066

>  <Name>  (104) 
CHEMBL2178300

>  <Set>  (104) 
training

>  <HBA count>  (104) 
3

>  <HBD count>  (104) 
0

>  <ExactMolWt>  (104) 
273.09324610791043

>  <NumRotatableBounds>  (104) 
6

>  <FractionCsp3>  (104) 
0.1875

>  <TPSA>  (104) 
49.36

>  <LogP_WildmanCrippen>  (104) 
3.4566000000000017

>  <General_Cluster>  (104) 
4

>  <Biological_Cluster>  (104) 
1

>  <Physicochemical_Cluster>  (104) 
3

>  <Structural_Cluster>  (104) 
3

$$$$
CHEMBL70830
     RDKit          3D

 56 60  0  0  0  0  0  0  0  0999 V2000
  109.0750   69.0452   42.9042 C   0  0  0  0  0  0  0  0  0  0  0  0
  109.0707   68.0849   43.9136 C   0  0  0  0  0  0  0  0  0  0  0  0
  109.5990   68.7531   41.6399 C   0  0  0  0  0  0  0  0  0  0  0  0
  109.7960   65.3603   36.0483 C   0  0  0  0  0  0  0  0  0  0  0  0
  111.8406   64.8708   34.8579 C   0  0  0  0  0  0  0  0  0  0  0  0
  109.0298   63.1040   44.0759 C   0  0  0  0  0  0  0  0  0  0  0  0
  108.8858   62.9574   41.6687 C   0  0  0  0  0  0  0  0  0  0  0  0
  109.5880   66.8054   43.6932 C   0  0  0  0  0  0  0  0  0  0  0  0
  109.2618   65.9344   34.8948 C   0  0  0  0  0  0  0  0  0  0  0  0
  111.3064   65.4449   33.7043 C   0  0  0  0  0  0  0  0  0  0  0  0
  107.8320   62.3985   44.1906 C   0  0  0  0  0  0  0  0  0  0  0  0
  107.6880   62.2518   41.7833 C   0  0  0  0  0  0  0  0  0  0  0  0
  110.1274   67.4702   41.3927 C   0  0  0  0  0  0  0  0  0  0  0  0
  111.0854   64.8285   36.0299 C   0  0  0  0  0  0  0  0  0  0  0  0
  110.7229   66.8387   40.2671 C   0  0  0  0  0  0  0  0  0  0  0  0
  109.5567   63.3835   42.8150 C   0  0  0  0  0  0  0  0  0  0  0  0
  110.1090   66.5252   42.4247 C   0  0  0  0  0  0  0  0  0  0  0  0
  110.0170   65.9767   33.7228 C   0  0  0  0  0  0  0  0  0  0  0  0
  107.1611   61.9724   43.0443 C   0  0  0  0  0  0  0  0  0  0  0  0
  111.0419   65.5480   40.6326 C   0  0  0  0  0  0  0  0  0  0  0  0
  111.6487   64.2231   37.2462 C   0  0  0  0  0  0  0  0  0  0  0  0
  110.9970   67.3433   38.8945 C   0  0  0  0  0  0  0  0  0  0  0  0
  111.6903   64.5180   39.7799 C   0  0  0  0  0  0  0  0  0  0  0  0
  112.0652   66.4659   38.2195 C   0  0  0  0  0  0  0  0  0  0  0  0
  108.5203   67.6201   32.5892 C   0  0  0  0  0  0  0  0  0  0  0  0
  110.8493   64.1440   42.6911 C   0  0  0  0  0  0  0  0  0  0  0  0
  110.6730   65.3659   41.9346 N   0  0  0  0  0  0  0  0  0  0  0  0
  111.7756   65.0253   38.3864 N   0  0  0  0  0  0  0  0  0  0  0  0
  109.4768   66.5573   32.5565 N   0  0  0  0  0  0  0  0  0  0  0  0
  111.9645   63.0366   37.1689 O   0  0  0  0  0  0  0  0  0  0  0  0
  105.9930   61.2829   43.1565 O   0  0  0  0  0  0  0  0  0  0  0  0
  108.6616   70.0449   43.1034 H   0  0  0  0  0  0  0  0  0  0  0  0
  108.6536   68.3377   44.8995 H   0  0  0  0  0  0  0  0  0  0  0  0
  109.5985   69.5164   40.8478 H   0  0  0  0  0  0  0  0  0  0  0  0
  109.2004   65.3269   36.9725 H   0  0  0  0  0  0  0  0  0  0  0  0
  112.8574   64.4514   34.8434 H   0  0  0  0  0  0  0  0  0  0  0  0
  109.5589   63.4400   44.9799 H   0  0  0  0  0  0  0  0  0  0  0  0
  109.3013   63.1778   40.6743 H   0  0  0  0  0  0  0  0  0  0  0  0
  109.5858   66.0455   44.4885 H   0  0  0  0  0  0  0  0  0  0  0  0
  108.2450   66.3538   34.9093 H   0  0  0  0  0  0  0  0  0  0  0  0
  111.9019   65.4783   32.7800 H   0  0  0  0  0  0  0  0  0  0  0  0
  107.4165   62.1782   45.1850 H   0  0  0  0  0  0  0  0  0  0  0  0
  107.1590   61.9157   40.8793 H   0  0  0  0  0  0  0  0  0  0  0  0
  110.0707   67.3113   38.3021 H   0  0  0  0  0  0  0  0  0  0  0  0
  111.3632   68.3788   38.9550 H   0  0  0  0  0  0  0  0  0  0  0  0
  112.7017   64.3094   40.1587 H   0  0  0  0  0  0  0  0  0  0  0  0
  111.0976   63.5916   39.8018 H   0  0  0  0  0  0  0  0  0  0  0  0
  112.0934   66.7017   37.1454 H   0  0  0  0  0  0  0  0  0  0  0  0
  113.0339   66.6782   38.6955 H   0  0  0  0  0  0  0  0  0  0  0  0
  108.2909   67.8749   33.6344 H   0  0  0  0  0  0  0  0  0  0  0  0
  108.9347   68.5022   32.0792 H   0  0  0  0  0  0  0  0  0  0  0  0
  107.5996   67.3006   32.0792 H   0  0  0  0  0  0  0  0  0  0  0  0
  111.2143   64.3958   43.6978 H   0  0  0  0  0  0  0  0  0  0  0  0
  111.5745   63.5098   42.1602 H   0  0  0  0  0  0  0  0  0  0  0  0
  109.7847   66.2002   31.6408 H   0  0  0  0  0  0  0  0  0  0  0  0
  105.5167   60.9804   42.3431 H   0  0  0  0  0  0  0  0  0  0  0  0
  1  2  2  0
  1  3  1  0
  2  8  1  0
  3 13  2  0
  4  9  2  0
  4 14  1  0
  5 10  1  0
  5 14  2  0
  6 11  2  0
  6 16  1  0
  7 12  1  0
  7 16  2  0
  8 17  2  0
  9 18  1  0
 10 18  2  0
 11 19  1  0
 12 19  2  0
 13 15  1  0
 13 17  1  0
 14 21  1  0
 15 20  2  0
 15 22  1  0
 16 26  1  0
 17 27  1  0
 18 29  1  0
 19 31  1  0
 20 23  1  0
 20 27  1  0
 21 28  1  0
 21 30  2  0
 22 24  1  0
 23 28  1  0
 24 28  1  0
 25 29  1  0
 26 27  1  0
  1 32  1  0
  2 33  1  0
  3 34  1  0
  4 35  1  0
  5 36  1  0
  6 37  1  0
  7 38  1  0
  8 39  1  0
  9 40  1  0
 10 41  1  0
 11 42  1  0
 12 43  1  0
 22 44  1  0
 22 45  1  0
 23 46  1  0
 23 47  1  0
 24 48  1  0
 24 49  1  0
 25 50  1  0
 25 51  1  0
 25 52  1  0
 26 53  1  0
 26 54  1  0
 29 55  1  0
 31 56  1  0
M  END
>  <s_m_entry_id>  (105) 
21821

>  <s_m_Source_Path>  (105) 
C:\Users\vinicius\Downloads\Ligands_Ecoli

>  <s_m_Source_File>  (105) 
Ligands_Ecoli_o.sdf

>  <i_m_Source_File_Index>  (105) 
10

>  <i_f3d_flags>  (105) 
0

>  <r_lp_tautomer_probability>  (105) 
0.999999999997365

>  <r_epik_Ionization_Penalty>  (105) 
  0.0025

>  <r_epik_State_Penalty>  (105) 
  0.0016

>  <i_epik_Tot_Q>  (105) 
0

>  <s_m_job_name>  (105) 
ligs_ecFabI_ligprep_2

>  <class_value>  (105) 
0

>  <FRED Chemgauss4 score>  (105) 
-14.095945

>  <Name>  (105) 
CHEMBL70830

>  <Set>  (105) 
training

>  <HBA count>  (105) 
4

>  <HBD count>  (105) 
2

>  <ExactMolWt>  (105) 
411.1946770400007

>  <NumRotatableBounds>  (105) 
6

>  <FractionCsp3>  (105) 
0.19230769230769232

>  <TPSA>  (105) 
57.5

>  <LogP_WildmanCrippen>  (105) 
4.635400000000004

>  <General_Cluster>  (105) 
1

>  <Biological_Cluster>  (105) 
2

>  <Physicochemical_Cluster>  (105) 
3

>  <Structural_Cluster>  (105) 
7

$$$$
CHEMBL73580
     RDKit          3D

 52 56  0  0  0  0  0  0  0  0999 V2000
  108.7506   68.9711   43.2110 C   0  0  0  0  0  0  0  0  0  0  0  0
  108.7075   68.0471   44.2528 C   0  0  0  0  0  0  0  0  0  0  0  0
  109.3220   68.6350   41.9786 C   0  0  0  0  0  0  0  0  0  0  0  0
  109.7281   65.0469   36.5224 C   0  0  0  0  0  0  0  0  0  0  0  0
  108.6571   63.0749   44.5890 C   0  0  0  0  0  0  0  0  0  0  0  0
  108.6042   62.8434   42.1847 C   0  0  0  0  0  0  0  0  0  0  0  0
  109.2319   66.7608   44.0974 C   0  0  0  0  0  0  0  0  0  0  0  0
  109.2376   65.5799   35.3303 C   0  0  0  0  0  0  0  0  0  0  0  0
  107.4553   62.3732   44.6831 C   0  0  0  0  0  0  0  0  0  0  0  0
  107.4024   62.1416   42.2788 C   0  0  0  0  0  0  0  0  0  0  0  0
  111.8154   64.5177   35.4270 C   0  0  0  0  0  0  0  0  0  0  0  0
  109.8585   67.3445   41.7969 C   0  0  0  0  0  0  0  0  0  0  0  0
  111.0170   64.5159   36.5707 C   0  0  0  0  0  0  0  0  0  0  0  0
  110.4957   66.6740   40.7177 C   0  0  0  0  0  0  0  0  0  0  0  0
  109.2315   63.3101   43.3398 C   0  0  0  0  0  0  0  0  0  0  0  0
  109.8004   66.4365   42.8602 C   0  0  0  0  0  0  0  0  0  0  0  0
  106.8280   61.9065   43.5280 C   0  0  0  0  0  0  0  0  0  0  0  0
  110.0360   65.5817   34.1866 C   0  0  0  0  0  0  0  0  0  0  0  0
  111.3250   65.0506   34.2349 C   0  0  0  0  0  0  0  0  0  0  0  0
  110.7997   65.3972   41.1403 C   0  0  0  0  0  0  0  0  0  0  0  0
  111.5334   63.9541   37.8281 C   0  0  0  0  0  0  0  0  0  0  0  0
  110.8220   67.1301   39.3395 C   0  0  0  0  0  0  0  0  0  0  0  0
  111.4793   64.3382   40.3496 C   0  0  0  0  0  0  0  0  0  0  0  0
  111.9143   66.2301   38.7368 C   0  0  0  0  0  0  0  0  0  0  0  0
  110.5284   64.0667   43.2382 C   0  0  0  0  0  0  0  0  0  0  0  0
  110.3817   65.2610   42.4330 N   0  0  0  0  0  0  0  0  0  0  0  0
  111.6176   64.7962   38.9434 N   0  0  0  0  0  0  0  0  0  0  0  0
  111.8511   62.7658   37.8047 O   0  0  0  0  0  0  0  0  0  0  0  0
  105.6559   61.2206   43.6201 O   0  0  0  0  0  0  0  0  0  0  0  0
  109.5307   66.1091   33.0356 O   0  0  0  0  0  0  0  0  0  0  0  0
  112.3336   65.0400   32.8353 Cl  0  0  0  0  0  0  0  0  0  0  0  0
  108.3304   69.9769   43.3590 H   0  0  0  0  0  0  0  0  0  0  0  0
  108.2536   68.3344   45.2127 H   0  0  0  0  0  0  0  0  0  0  0  0
  109.3521   69.3699   41.1607 H   0  0  0  0  0  0  0  0  0  0  0  0
  109.0984   65.0453   37.4244 H   0  0  0  0  0  0  0  0  0  0  0  0
  109.1519   63.4428   45.4999 H   0  0  0  0  0  0  0  0  0  0  0  0
  109.0572   63.0288   41.1996 H   0  0  0  0  0  0  0  0  0  0  0  0
  109.1990   66.0293   44.9183 H   0  0  0  0  0  0  0  0  0  0  0  0
  108.2212   65.9988   35.2922 H   0  0  0  0  0  0  0  0  0  0  0  0
  107.0023   62.1879   45.6682 H   0  0  0  0  0  0  0  0  0  0  0  0
  106.9076   61.7736   41.3679 H   0  0  0  0  0  0  0  0  0  0  0  0
  112.8318   64.0989   35.4652 H   0  0  0  0  0  0  0  0  0  0  0  0
  109.9188   67.0768   38.7139 H   0  0  0  0  0  0  0  0  0  0  0  0
  111.1864   68.1673   39.3773 H   0  0  0  0  0  0  0  0  0  0  0  0
  112.4755   64.1438   40.7735 H   0  0  0  0  0  0  0  0  0  0  0  0
  110.8857   63.4127   40.3817 H   0  0  0  0  0  0  0  0  0  0  0  0
  111.9833   66.4278   37.6569 H   0  0  0  0  0  0  0  0  0  0  0  0
  112.8645   66.4596   39.2413 H   0  0  0  0  0  0  0  0  0  0  0  0
  110.8551   64.3541   44.2485 H   0  0  0  0  0  0  0  0  0  0  0  0
  111.2728   63.4147   42.7579 H   0  0  0  0  0  0  0  0  0  0  0  0
  105.2105   60.8893   42.8004 H   0  0  0  0  0  0  0  0  0  0  0  0
  110.0811   66.1201   32.2128 H   0  0  0  0  0  0  0  0  0  0  0  0
  1  2  2  0
  1  3  1  0
  2  7  1  0
  3 12  2  0
  4  8  2  0
  4 13  1  0
  5  9  2  0
  5 15  1  0
  6 10  1  0
  6 15  2  0
  7 16  2  0
  8 18  1  0
  9 17  1  0
 10 17  2  0
 11 13  2  0
 11 19  1  0
 12 14  1  0
 12 16  1  0
 13 21  1  0
 14 20  2  0
 14 22  1  0
 15 25  1  0
 16 26  1  0
 17 29  1  0
 18 19  2  0
 18 30  1  0
 19 31  1  0
 20 23  1  0
 20 26  1  0
 21 27  1  0
 21 28  2  0
 22 24  1  0
 23 27  1  0
 24 27  1  0
 25 26  1  0
  1 32  1  0
  2 33  1  0
  3 34  1  0
  4 35  1  0
  5 36  1  0
  6 37  1  0
  7 38  1  0
  8 39  1  0
  9 40  1  0
 10 41  1  0
 11 42  1  0
 22 43  1  0
 22 44  1  0
 23 45  1  0
 23 46  1  0
 24 47  1  0
 24 48  1  0
 25 49  1  0
 25 50  1  0
 29 51  1  0
 30 52  1  0
M  END
>  <s_m_entry_id>  (106) 
21820

>  <s_m_Source_Path>  (106) 
C:\Users\vinicius\Downloads\Ligands_Ecoli

>  <s_m_Source_File>  (106) 
Ligands_Ecoli_o.sdf

>  <i_m_Source_File_Index>  (106) 
9

>  <i_f3d_flags>  (106) 
0

>  <r_lp_tautomer_probability>  (106) 
0.99999999999473

>  <r_epik_Ionization_Penalty>  (106) 
  0.5726

>  <r_epik_State_Penalty>  (106) 
  0.5838

>  <i_epik_Tot_Q>  (106) 
0

>  <s_m_job_name>  (106) 
ligs_ecFabI_ligprep_2

>  <class_value>  (106) 
0

>  <FRED Chemgauss4 score>  (106) 
-12.624745

>  <Name>  (106) 
CHEMBL73580

>  <Set>  (106) 
training

>  <HBA count>  (106) 
4

>  <HBD count>  (106) 
2

>  <ExactMolWt>  (106) 
432.12407021200056

>  <NumRotatableBounds>  (106) 
5

>  <FractionCsp3>  (106) 
0.16

>  <TPSA>  (106) 
65.7

>  <LogP_WildmanCrippen>  (106) 
4.9527000000000045

>  <General_Cluster>  (106) 
1

>  <Biological_Cluster>  (106) 
2

>  <Physicochemical_Cluster>  (106) 
2

>  <Structural_Cluster>  (106) 
7

$$$$
CHEMBL237835
     RDKit          3D

 40 43  0  0  0  0  0  0  0  0999 V2000
  108.2674   69.3479   31.5054 C   0  0  0  0  0  0  0  0  0  0  0  0
  109.3254   70.0712   32.0960 C   0  0  0  0  0  0  0  0  0  0  0  0
  108.8184   66.3083   41.5684 C   0  0  0  0  0  0  0  0  0  0  0  0
  109.0843   66.5521   40.2179 C   0  0  0  0  0  0  0  0  0  0  0  0
  108.2897   67.9491   31.4102 C   0  0  0  0  0  0  0  0  0  0  0  0
  110.4575   69.4310   32.6203 C   0  0  0  0  0  0  0  0  0  0  0  0
  110.1586   64.2886   41.5070 C   0  0  0  0  0  0  0  0  0  0  0  0
  109.3496   65.1907   42.2027 C   0  0  0  0  0  0  0  0  0  0  0  0
  109.8988   65.6565   39.4915 C   0  0  0  0  0  0  0  0  0  0  0  0
  109.4178   67.3289   31.9342 C   0  0  0  0  0  0  0  0  0  0  0  0
  110.4652   68.0449   32.5188 C   0  0  0  0  0  0  0  0  0  0  0  0
  110.4216   64.5397   40.1507 C   0  0  0  0  0  0  0  0  0  0  0  0
  110.9641   65.8798   32.6075 C   0  0  0  0  0  0  0  0  0  0  0  0
  111.0143   64.7595   37.8129 C   0  0  0  0  0  0  0  0  0  0  0  0
  111.0763   64.8400   35.2889 C   0  0  0  0  0  0  0  0  0  0  0  0
  109.0523   64.9487   43.6453 C   0  0  0  0  0  0  0  0  0  0  0  0
  111.6829   64.6119   32.8746 C   0  0  0  0  0  0  0  0  0  0  0  0
  110.2472   65.7686   38.1534 N   0  0  0  0  0  0  0  0  0  0  0  0
  109.7724   65.9978   32.0130 N   0  0  0  0  0  0  0  0  0  0  0  0
  111.3948   67.1069   32.9183 N   0  0  0  0  0  4  0  0  0  0  0  0
  111.5849   64.4985   36.5452 N   0  0  0  0  0  0  0  0  0  0  0  0
  111.9415   64.4031   34.2805 N   0  0  0  0  0  0  0  0  0  0  0  0
  110.0268   65.4369   35.0611 O   0  0  0  0  0  0  0  0  0  0  0  0
  111.3709   63.6233   39.0409 S   0  0  0  0  0  0  0  0  0  0  0  0
  107.4007   69.8969   31.1085 H   0  0  0  0  0  0  0  0  0  0  0  0
  109.2602   71.1681   32.1465 H   0  0  0  0  0  0  0  0  0  0  0  0
  108.1837   67.0063   42.1340 H   0  0  0  0  0  0  0  0  0  0  0  0
  108.6605   67.4384   39.7230 H   0  0  0  0  0  0  0  0  0  0  0  0
  107.4681   67.3799   30.9509 H   0  0  0  0  0  0  0  0  0  0  0  0
  111.2853   69.9893   33.0817 H   0  0  0  0  0  0  0  0  0  0  0  0
  110.5787   63.4045   42.0089 H   0  0  0  0  0  0  0  0  0  0  0  0
  109.7566   65.5220   44.2660 H   0  0  0  0  0  0  0  0  0  0  0  0
  108.0236   65.2694   43.8665 H   0  0  0  0  0  0  0  0  0  0  0  0
  109.1576   63.8763   43.8665 H   0  0  0  0  0  0  0  0  0  0  0  0
  111.0730   63.7762   32.5011 H   0  0  0  0  0  0  0  0  0  0  0  0
  112.6549   64.6668   32.3626 H   0  0  0  0  0  0  0  0  0  0  0  0
  109.2039   65.2123   31.6657 H   0  0  0  0  0  0  0  0  0  0  0  0
  112.2873   67.3201   33.3861 H   0  0  0  0  0  0  0  0  0  0  0  0
  112.4840   63.9960   36.5482 H   0  0  0  0  0  0  0  0  0  0  0  0
  112.8034   63.9094   34.5530 H   0  0  0  0  0  0  0  0  0  0  0  0
  1  2  2  0
  1  5  1  0
  2  6  1  0
  3  4  2  0
  3  8  1  0
  4  9  1  0
  5 10  2  0
  6 11  2  0
  7  8  2  0
  7 12  1  0
  8 16  1  0
  9 12  2  0
  9 18  1  0
 10 11  1  0
 10 19  1  0
 11 20  1  0
 12 24  1  0
 13 17  1  0
 13 19  1  0
 13 20  2  0
 14 18  2  0
 14 21  1  0
 14 24  1  0
 15 21  1  0
 15 22  1  0
 15 23  2  0
 17 22  1  0
  1 25  1  0
  2 26  1  0
  3 27  1  0
  4 28  1  0
  5 29  1  0
  6 30  1  0
  7 31  1  0
 16 32  1  0
 16 33  1  0
 16 34  1  0
 17 35  1  0
 17 36  1  0
 19 37  1  0
 20 38  1  0
 21 39  1  0
 22 40  1  0
M  CHG  1  20   1
M  END
>  <s_m_entry_id>  (107) 
21939

>  <s_m_Source_Path>  (107) 
C:\Users\vinicius\Downloads\Ligands_Ecoli

>  <s_m_Source_File>  (107) 
Ligands_Ecoli_o.sdf

>  <i_m_Source_File_Index>  (107) 
72

>  <i_f3d_flags>  (107) 
0

>  <r_epik_Ionization_Penalty>  (107) 
  2.2399

>  <r_epik_State_Penalty>  (107) 
  2.3852

>  <i_epik_Tot_Q>  (107) 
1

>  <s_m_job_name>  (107) 
ligs_ecFabI_ligprep_2

>  <class_value>  (107) 
0

>  <FRED Chemgauss4 score>  (107) 
-14.937908

>  <Name>  (107) 
CHEMBL237835

>  <Set>  (107) 
training

>  <HBA count>  (107) 
3

>  <HBD count>  (107) 
3

>  <ExactMolWt>  (107) 
338.1070075520904

>  <NumRotatableBounds>  (107) 
4

>  <FractionCsp3>  (107) 
0.11764705882352941

>  <TPSA>  (107) 
83.94999999999999

>  <LogP_WildmanCrippen>  (107) 
3.221820000000001

>  <General_Cluster>  (107) 
3

>  <Biological_Cluster>  (107) 
2

>  <Physicochemical_Cluster>  (107) 
9

>  <Structural_Cluster>  (107) 
4

$$$$
CHEMBL308352
     RDKit          3D

 57 61  0  0  0  0  0  0  0  0999 V2000
  109.6290   69.0808   43.0480 C   0  0  0  0  0  0  0  0  0  0  0  0
  109.6410   68.1241   44.0607 C   0  0  0  0  0  0  0  0  0  0  0  0
  109.8857   68.7216   41.7201 C   0  0  0  0  0  0  0  0  0  0  0  0
  111.5546   64.5284   34.9769 C   0  0  0  0  0  0  0  0  0  0  0  0
  109.2887   65.2711   35.3657 C   0  0  0  0  0  0  0  0  0  0  0  0
  108.8494   63.2100   44.3125 C   0  0  0  0  0  0  0  0  0  0  0  0
  108.2898   63.1107   41.9643 C   0  0  0  0  0  0  0  0  0  0  0  0
  109.9085   66.7813   43.7804 C   0  0  0  0  0  0  0  0  0  0  0  0
  111.5356   65.1294   33.7183 C   0  0  0  0  0  0  0  0  0  0  0  0
  109.2697   65.8721   34.1071 C   0  0  0  0  0  0  0  0  0  0  0  0
  107.5910   62.7015   44.6340 C   0  0  0  0  0  0  0  0  0  0  0  0
  107.0314   62.6021   42.2857 C   0  0  0  0  0  0  0  0  0  0  0  0
  110.1592   67.3738   41.4115 C   0  0  0  0  0  0  0  0  0  0  0  0
  110.4311   64.5992   35.8006 C   0  0  0  0  0  0  0  0  0  0  0  0
  110.4552   66.6668   40.2145 C   0  0  0  0  0  0  0  0  0  0  0  0
  109.1988   63.4147   42.9777 C   0  0  0  0  0  0  0  0  0  0  0  0
  110.1634   66.4342   42.4486 C   0  0  0  0  0  0  0  0  0  0  0  0
  110.3932   65.8013   33.2834 C   0  0  0  0  0  0  0  0  0  0  0  0
  106.6820   62.3975   43.6206 C   0  0  0  0  0  0  0  0  0  0  0  0
  110.6243   65.3388   40.5448 C   0  0  0  0  0  0  0  0  0  0  0  0
  110.4510   63.9657   37.1278 C   0  0  0  0  0  0  0  0  0  0  0  0
  110.5751   67.1345   38.8072 C   0  0  0  0  0  0  0  0  0  0  0  0
  110.9546   64.2276   39.6150 C   0  0  0  0  0  0  0  0  0  0  0  0
  111.3672   66.1065   37.9812 C   0  0  0  0  0  0  0  0  0  0  0  0
  104.0808   63.1992   44.2076 C   0  0  0  0  0  0  0  0  0  0  0  0
  110.5561   63.9641   42.6306 C   0  0  0  0  0  0  0  0  0  0  0  0
  110.4509   65.2052   41.8926 N   0  0  0  0  0  0  0  0  0  0  0  0
  110.8875   64.7278   38.2180 N   0  0  0  0  0  0  0  0  0  0  0  0
  110.0700   62.7970   37.1801 O   0  0  0  0  0  0  0  0  0  0  0  0
  104.6217   61.0075   42.8740 O   0  0  0  0  0  0  0  0  0  0  0  0
  105.1778   61.1174   45.3285 O   0  0  0  0  0  0  0  0  0  0  0  0
  110.3743   66.3877   32.0554 O   0  0  0  0  0  0  0  0  0  0  0  0
  105.1077   61.7588   44.0226 S   0  0  0  0  0  6  0  0  0  0  0  0
  109.4152   70.1311   43.2952 H   0  0  0  0  0  0  0  0  0  0  0  0
  109.4367   68.4304   45.0972 H   0  0  0  0  0  0  0  0  0  0  0  0
  109.8742   69.4827   40.9260 H   0  0  0  0  0  0  0  0  0  0  0  0
  112.4555   63.9986   35.3199 H   0  0  0  0  0  0  0  0  0  0  0  0
  108.4028   65.3270   36.0153 H   0  0  0  0  0  0  0  0  0  0  0  0
  109.5663   63.4496   45.1116 H   0  0  0  0  0  0  0  0  0  0  0  0
  108.5654   63.2721   40.9117 H   0  0  0  0  0  0  0  0  0  0  0  0
  109.9184   66.0240   44.5782 H   0  0  0  0  0  0  0  0  0  0  0  0
  112.4215   65.0735   33.0687 H   0  0  0  0  0  0  0  0  0  0  0  0
  108.3688   66.4019   33.7641 H   0  0  0  0  0  0  0  0  0  0  0  0
  107.3154   62.5402   45.6866 H   0  0  0  0  0  0  0  0  0  0  0  0
  106.3145   62.3624   41.4866 H   0  0  0  0  0  0  0  0  0  0  0  0
  109.5705   67.2537   38.3753 H   0  0  0  0  0  0  0  0  0  0  0  0
  111.1036   68.0991   38.7892 H   0  0  0  0  0  0  0  0  0  0  0  0
  111.9695   63.8596   39.8263 H   0  0  0  0  0  0  0  0  0  0  0  0
  110.2363   63.4054   39.7495 H   0  0  0  0  0  0  0  0  0  0  0  0
  111.2547   66.3446   36.9132 H   0  0  0  0  0  0  0  0  0  0  0  0
  112.4222   66.1598   38.2880 H   0  0  0  0  0  0  0  0  0  0  0  0
  103.9317   63.4083   45.2772 H   0  0  0  0  0  0  0  0  0  0  0  0
  104.5691   64.0614   43.7300 H   0  0  0  0  0  0  0  0  0  0  0  0
  103.1065   63.0187   43.7300 H   0  0  0  0  0  0  0  0  0  0  0  0
  111.1166   64.1464   43.5594 H   0  0  0  0  0  0  0  0  0  0  0  0
  111.0759   63.2288   41.9989 H   0  0  0  0  0  0  0  0  0  0  0  0
  109.5634   66.8645   31.7470 H   0  0  0  0  0  0  0  0  0  0  0  0
  1  2  2  0
  1  3  1  0
  2  8  1  0
  3 13  2  0
  4  9  2  0
  4 14  1  0
  5 10  1  0
  5 14  2  0
  6 11  2  0
  6 16  1  0
  7 12  1  0
  7 16  2  0
  8 17  2  0
  9 18  1  0
 10 18  2  0
 11 19  1  0
 12 19  2  0
 13 15  1  0
 13 17  1  0
 14 21  1  0
 15 20  2  0
 15 22  1  0
 16 26  1  0
 17 27  1  0
 18 32  1  0
 19 33  1  0
 20 23  1  0
 20 27  1  0
 21 28  1  0
 21 29  2  0
 22 24  1  0
 23 28  1  0
 24 28  1  0
 25 33  1  0
 26 27  1  0
 30 33  2  0
 31 33  2  0
  1 34  1  0
  2 35  1  0
  3 36  1  0
  4 37  1  0
  5 38  1  0
  6 39  1  0
  7 40  1  0
  8 41  1  0
  9 42  1  0
 10 43  1  0
 11 44  1  0
 12 45  1  0
 22 46  1  0
 22 47  1  0
 23 48  1  0
 23 49  1  0
 24 50  1  0
 24 51  1  0
 25 52  1  0
 25 53  1  0
 25 54  1  0
 26 55  1  0
 26 56  1  0
 32 57  1  0
M  END
>  <s_m_entry_id>  (108) 
21849

>  <s_m_Source_Path>  (108) 
C:\Users\vinicius\Downloads\Ligands_Ecoli

>  <s_m_Source_File>  (108) 
Ligands_Ecoli_o.sdf

>  <i_m_Source_File_Index>  (108) 
27

>  <i_f3d_flags>  (108) 
0

>  <r_lp_tautomer_probability>  (108) 
0.999999999997365

>  <r_epik_Ionization_Penalty>  (108) 
  0.0358

>  <r_epik_State_Penalty>  (108) 
  0.0299

>  <i_epik_Tot_Q>  (108) 
0

>  <s_m_job_name>  (108) 
ligs_ecFabI_ligprep_2

>  <class_value>  (108) 
0

>  <FRED Chemgauss4 score>  (108) 
-12.959542

>  <Name>  (108) 
CHEMBL308352

>  <Set>  (108) 
training

>  <HBA count>  (108) 
5

>  <HBD count>  (108) 
1

>  <ExactMolWt>  (108) 
460.14567824800065

>  <NumRotatableBounds>  (108) 
6

>  <FractionCsp3>  (108) 
0.19230769230769232

>  <TPSA>  (108) 
79.61

>  <LogP_WildmanCrippen>  (108) 
3.9972000000000025

>  <General_Cluster>  (108) 
1

>  <Biological_Cluster>  (108) 
2

>  <Physicochemical_Cluster>  (108) 
3

>  <Structural_Cluster>  (108) 
7

$$$$
CHEMBL304771
     RDKit          3D

 57 61  0  0  0  0  0  0  0  0999 V2000
  109.1514   69.2794   43.1825 C   0  0  0  0  0  0  0  0  0  0  0  0
  109.0639   68.3336   44.2017 C   0  0  0  0  0  0  0  0  0  0  0  0
  109.6853   68.9401   41.9342 C   0  0  0  0  0  0  0  0  0  0  0  0
  109.7989   65.4740   36.3854 C   0  0  0  0  0  0  0  0  0  0  0  0
  111.8356   64.8435   35.2490 C   0  0  0  0  0  0  0  0  0  0  0  0
  109.3281   66.0659   35.2134 C   0  0  0  0  0  0  0  0  0  0  0  0
  111.3648   65.4354   34.0769 C   0  0  0  0  0  0  0  0  0  0  0  0
  108.7081   63.3672   44.4160 C   0  0  0  0  0  0  0  0  0  0  0  0
  108.6108   63.2007   42.0078 C   0  0  0  0  0  0  0  0  0  0  0  0
  109.5051   67.0218   44.0073 C   0  0  0  0  0  0  0  0  0  0  0  0
  107.4662   62.7391   44.5097 C   0  0  0  0  0  0  0  0  0  0  0  0
  107.3689   62.5725   42.1014 C   0  0  0  0  0  0  0  0  0  0  0  0
  110.1380   67.6238   41.7133 C   0  0  0  0  0  0  0  0  0  0  0  0
  111.0526   64.8628   36.4033 C   0  0  0  0  0  0  0  0  0  0  0  0
  110.1111   66.0466   34.0591 C   0  0  0  0  0  0  0  0  0  0  0  0
  110.7187   66.9429   40.6090 C   0  0  0  0  0  0  0  0  0  0  0  0
  109.2804   63.5981   43.1651 C   0  0  0  0  0  0  0  0  0  0  0  0
  110.0368   66.6944   42.7546 C   0  0  0  0  0  0  0  0  0  0  0  0
  106.7966   62.3417   43.3524 C   0  0  0  0  0  0  0  0  0  0  0  0
  110.9479   65.6394   40.9958 C   0  0  0  0  0  0  0  0  0  0  0  0
  111.5487   64.2383   37.6390 C   0  0  0  0  0  0  0  0  0  0  0  0
  109.6196   66.6619   32.8369 C   0  0  0  0  0  0  0  0  0  0  0  0
  111.0555   67.4128   39.2381 C   0  0  0  0  0  0  0  0  0  0  0  0
  111.5502   64.5608   40.1697 C   0  0  0  0  0  0  0  0  0  0  0  0
  112.0820   66.4625   38.5980 C   0  0  0  0  0  0  0  0  0  0  0  0
  107.7821   67.8416   31.8749 C   0  0  0  0  0  0  0  0  0  0  0  0
  110.6204   64.2752   43.0639 C   0  0  0  0  0  0  0  0  0  0  0  0
  110.5384   65.4964   42.2905 N   0  0  0  0  0  0  0  0  0  0  0  0
  111.6991   65.0449   38.7734 N   0  0  0  0  0  0  0  0  0  0  0  0
  111.7915   63.0336   37.5819 O   0  0  0  0  0  0  0  0  0  0  0  0
  110.2439   66.6926   31.7679 O   0  0  0  0  0  0  0  0  0  0  0  0
  105.5854   61.7277   43.4440 O   0  0  0  0  0  0  0  0  0  0  0  0
  108.3759   67.2051   33.0116 O   0  0  0  0  0  0  0  0  0  0  0  0
  108.7966   70.3052   43.3611 H   0  0  0  0  0  0  0  0  0  0  0  0
  108.6409   68.6239   45.1747 H   0  0  0  0  0  0  0  0  0  0  0  0
  109.7509   69.6924   41.1343 H   0  0  0  0  0  0  0  0  0  0  0  0
  109.1814   65.4892   37.2956 H   0  0  0  0  0  0  0  0  0  0  0  0
  112.8243   64.3615   35.2630 H   0  0  0  0  0  0  0  0  0  0  0  0
  108.3394   66.5479   35.1994 H   0  0  0  0  0  0  0  0  0  0  0  0
  111.9822   65.4202   33.1666 H   0  0  0  0  0  0  0  0  0  0  0  0
  109.2362   63.6805   45.3287 H   0  0  0  0  0  0  0  0  0  0  0  0
  109.0621   63.3827   41.0213 H   0  0  0  0  0  0  0  0  0  0  0  0
  109.4369   66.2731   44.8103 H   0  0  0  0  0  0  0  0  0  0  0  0
  107.0149   62.5572   45.4962 H   0  0  0  0  0  0  0  0  0  0  0  0
  106.8409   62.2591   41.1887 H   0  0  0  0  0  0  0  0  0  0  0  0
  110.1430   67.4315   38.6242 H   0  0  0  0  0  0  0  0  0  0  0  0
  111.4843   68.4241   39.2964 H   0  0  0  0  0  0  0  0  0  0  0  0
  112.5376   64.2943   40.5746 H   0  0  0  0  0  0  0  0  0  0  0  0
  110.9005   63.6734   40.1873 H   0  0  0  0  0  0  0  0  0  0  0  0
  112.1496   66.6830   37.5224 H   0  0  0  0  0  0  0  0  0  0  0  0
  113.0509   66.6198   39.0944 H   0  0  0  0  0  0  0  0  0  0  0  0
  107.0683   68.6067   32.2143 H   0  0  0  0  0  0  0  0  0  0  0  0
  108.5676   68.3162   31.2685 H   0  0  0  0  0  0  0  0  0  0  0  0
  107.2541   67.0909   31.2685 H   0  0  0  0  0  0  0  0  0  0  0  0
  110.9770   64.5160   44.0762 H   0  0  0  0  0  0  0  0  0  0  0  0
  111.3166   63.5907   42.5572 H   0  0  0  0  0  0  0  0  0  0  0  0
  105.1101   61.4456   42.6227 H   0  0  0  0  0  0  0  0  0  0  0  0
  1  2  2  0
  1  3  1  0
  2 10  1  0
  3 13  2  0
  4  6  2  0
  4 14  1  0
  5  7  1  0
  5 14  2  0
  6 15  1  0
  7 15  2  0
  8 11  2  0
  8 17  1  0
  9 12  1  0
  9 17  2  0
 10 18  2  0
 11 19  1  0
 12 19  2  0
 13 16  1  0
 13 18  1  0
 14 21  1  0
 15 22  1  0
 16 20  2  0
 16 23  1  0
 17 27  1  0
 18 28  1  0
 19 32  1  0
 20 24  1  0
 20 28  1  0
 21 29  1  0
 21 30  2  0
 22 31  2  0
 22 33  1  0
 23 25  1  0
 24 29  1  0
 25 29  1  0
 26 33  1  0
 27 28  1  0
  1 34  1  0
  2 35  1  0
  3 36  1  0
  4 37  1  0
  5 38  1  0
  6 39  1  0
  7 40  1  0
  8 41  1  0
  9 42  1  0
 10 43  1  0
 11 44  1  0
 12 45  1  0
 23 46  1  0
 23 47  1  0
 24 48  1  0
 24 49  1  0
 25 50  1  0
 25 51  1  0
 26 52  1  0
 26 53  1  0
 26 54  1  0
 27 55  1  0
 27 56  1  0
 32 57  1  0
M  END
>  <s_m_entry_id>  (109) 
21824

>  <s_m_Source_Path>  (109) 
C:\Users\vinicius\Downloads\Ligands_Ecoli

>  <s_m_Source_File>  (109) 
Ligands_Ecoli_o.sdf

>  <i_m_Source_File_Index>  (109) 
12

>  <i_f3d_flags>  (109) 
0

>  <r_lp_tautomer_probability>  (109) 
0.999999999997365

>  <r_epik_Ionization_Penalty>  (109) 
  0.0024

>  <r_epik_State_Penalty>  (109) 
  0.0016

>  <i_epik_Tot_Q>  (109) 
0

>  <s_m_job_name>  (109) 
ligs_ecFabI_ligprep_2

>  <class_value>  (109) 
0

>  <FRED Chemgauss4 score>  (109) 
-15.738805

>  <Name>  (109) 
CHEMBL304771

>  <Set>  (109) 
training

>  <HBA count>  (109) 
5

>  <HBD count>  (109) 
1

>  <ExactMolWt>  (109) 
440.1736072480006

>  <NumRotatableBounds>  (109) 
6

>  <FractionCsp3>  (109) 
0.18518518518518517

>  <TPSA>  (109) 
71.77000000000001

>  <LogP_WildmanCrippen>  (109) 
4.380300000000005

>  <General_Cluster>  (109) 
1

>  <Biological_Cluster>  (109) 
2

>  <Physicochemical_Cluster>  (109) 
3

>  <Structural_Cluster>  (109) 
7

$$$$
CHEMBL2178317
     RDKit          3D

 29 30  0  0  0  0  0  0  0  0999 V2000
  112.3294   66.3744   38.6571 C   0  0  0  0  0  0  0  0  0  0  0  0
  110.9248   66.9321   32.8539 C   0  0  0  0  0  0  0  0  0  0  0  0
  111.7832   66.1913   33.6662 C   0  0  0  0  0  0  0  0  0  0  0  0
  112.3654   66.1621   37.2834 C   0  0  0  0  0  0  0  0  0  0  0  0
  112.0131   65.3224   39.5095 C   0  0  0  0  0  0  0  0  0  0  0  0
  109.0235   66.0317   34.0419 C   0  0  0  0  0  0  0  0  0  0  0  0
  109.5449   66.8523   33.0418 C   0  0  0  0  0  0  0  0  0  0  0  0
  111.2619   65.3706   34.6663 C   0  0  0  0  0  0  0  0  0  0  0  0
  109.8820   65.2908   34.8542 C   0  0  0  0  0  0  0  0  0  0  0  0
  112.0796   64.8894   36.8162 C   0  0  0  0  0  0  0  0  0  0  0  0
  111.7428   64.0873   38.9425 C   0  0  0  0  0  0  0  0  0  0  0  0
  108.3346   69.0290   32.7522 C   0  0  0  0  0  0  0  0  0  0  0  0
  108.6271   67.6464   32.1750 C   0  0  0  0  0  0  0  0  0  0  0  0
  111.7681   63.8428   37.6132 N   0  0  0  0  0  0  0  0  0  0  0  0
  109.3610   64.4921   35.8271 O   0  0  0  0  0  0  0  0  0  0  0  0
  112.1111   64.6520   35.4529 O   0  0  0  0  0  0  0  0  0  0  0  0
  111.4376   63.0628   39.7539 F   0  0  0  0  0  0  0  0  0  0  0  0
  112.5503   67.3706   39.0679 H   0  0  0  0  0  0  0  0  0  0  0  0
  111.3360   67.5792   32.0651 H   0  0  0  0  0  0  0  0  0  0  0  0
  112.8714   66.2543   33.5181 H   0  0  0  0  0  0  0  0  0  0  0  0
  112.6130   66.9789   36.5894 H   0  0  0  0  0  0  0  0  0  0  0  0
  111.9785   65.4661   40.5995 H   0  0  0  0  0  0  0  0  0  0  0  0
  107.9353   65.9688   34.1901 H   0  0  0  0  0  0  0  0  0  0  0  0
  108.3455   68.9774   33.8509 H   0  0  0  0  0  0  0  0  0  0  0  0
  109.1025   69.7388   32.4108 H   0  0  0  0  0  0  0  0  0  0  0  0
  107.3451   69.3670   32.4108 H   0  0  0  0  0  0  0  0  0  0  0  0
  109.0921   67.7676   31.1855 H   0  0  0  0  0  0  0  0  0  0  0  0
  107.6737   67.1019   32.1077 H   0  0  0  0  0  0  0  0  0  0  0  0
  109.9630   63.9628   36.4081 H   0  0  0  0  0  0  0  0  0  0  0  0
  1  4  2  0
  1  5  1  0
  2  3  2  0
  2  7  1  0
  3  8  1  0
  4 10  1  0
  5 11  2  0
  6  7  2  0
  6  9  1  0
  7 13  1  0
  8  9  2  0
  8 16  1  0
  9 15  1  0
 10 14  2  0
 10 16  1  0
 11 14  1  0
 11 17  1  0
 12 13  1  0
  1 18  1  0
  2 19  1  0
  3 20  1  0
  4 21  1  0
  5 22  1  0
  6 23  1  0
 12 24  1  0
 12 25  1  0
 12 26  1  0
 13 27  1  0
 13 28  1  0
 15 29  1  0
M  END
>  <s_m_entry_id>  (110) 
22040

>  <s_m_Source_Path>  (110) 
C:\Users\vinicius\Downloads\Ligands_Ecoli

>  <s_m_Source_File>  (110) 
Ligands_Ecoli_o.sdf

>  <i_m_Source_File_Index>  (110) 
124

>  <i_f3d_flags>  (110) 
0

>  <r_lp_tautomer_probability>  (110) 
1

>  <r_epik_Ionization_Penalty>  (110) 
  0.0019

>  <r_epik_State_Penalty>  (110) 
  0.0013

>  <i_epik_Tot_Q>  (110) 
0

>  <s_m_job_name>  (110) 
ligs_ecFabI_ligprep_2

>  <class_value>  (110) 
1

>  <FRED Chemgauss4 score>  (110) 
-14.829500

>  <Name>  (110) 
CHEMBL2178317

>  <Set>  (110) 
training

>  <HBA count>  (110) 
3

>  <HBD count>  (110) 
1

>  <ExactMolWt>  (110) 
233.085206844

>  <NumRotatableBounds>  (110) 
5

>  <FractionCsp3>  (110) 
0.15384615384615385

>  <TPSA>  (110) 
42.35000000000001

>  <LogP_WildmanCrippen>  (110) 
3.281000000000002

>  <General_Cluster>  (110) 
4

>  <Biological_Cluster>  (110) 
1

>  <Physicochemical_Cluster>  (110) 
6

>  <Structural_Cluster>  (110) 
3

$$$$
CHEMBL393298
     RDKit          3D

 37 40  0  0  0  0  0  0  0  0999 V2000
  109.9619   67.1531   41.6190 C   0  0  0  0  0  0  0  0  0  0  0  0
  108.0594   69.2562   31.4827 C   0  0  0  0  0  0  0  0  0  0  0  0
  109.1989   70.0034   31.8499 C   0  0  0  0  0  0  0  0  0  0  0  0
  110.5597   66.0848   42.2785 C   0  0  0  0  0  0  0  0  0  0  0  0
  110.0428   67.2642   40.2279 C   0  0  0  0  0  0  0  0  0  0  0  0
  108.0500   67.8545   31.5204 C   0  0  0  0  0  0  0  0  0  0  0  0
  110.3845   69.3855   32.2727 C   0  0  0  0  0  0  0  0  0  0  0  0
  111.2527   65.1012   41.5684 C   0  0  0  0  0  0  0  0  0  0  0  0
  110.7371   66.2840   39.4861 C   0  0  0  0  0  0  0  0  0  0  0  0
  109.2319   67.2565   31.9415 C   0  0  0  0  0  0  0  0  0  0  0  0
  110.3598   67.9962   32.3049 C   0  0  0  0  0  0  0  0  0  0  0  0
  111.3301   65.2192   40.1713 C   0  0  0  0  0  0  0  0  0  0  0  0
  110.8379   65.8366   32.5321 C   0  0  0  0  0  0  0  0  0  0  0  0
  111.5985   65.2066   37.7645 C   0  0  0  0  0  0  0  0  0  0  0  0
  111.3091   65.0493   35.2600 C   0  0  0  0  0  0  0  0  0  0  0  0
  111.5702   64.5807   32.8185 C   0  0  0  0  0  0  0  0  0  0  0  0
  110.8996   66.2630   38.1086 N   0  0  0  0  0  0  0  0  0  0  0  0
  109.5766   65.9297   32.0985 N   0  0  0  0  0  0  0  0  0  0  0  0
  111.3237   67.0755   32.6612 N   0  0  0  0  0  4  0  0  0  0  0  0
  111.9833   64.8135   36.4614 N   0  0  0  0  0  0  0  0  0  0  0  0
  112.0194   64.4975   34.1889 N   0  0  0  0  0  0  0  0  0  0  0  0
  110.2460   65.6497   35.1223 O   0  0  0  0  0  0  0  0  0  0  0  0
  112.1049   64.1794   39.0350 S   0  0  0  0  0  0  0  0  0  0  0  0
  109.4209   67.9170   42.1967 H   0  0  0  0  0  0  0  0  0  0  0  0
  107.1531   69.7883   31.1578 H   0  0  0  0  0  0  0  0  0  0  0  0
  109.1558   71.1016   31.8031 H   0  0  0  0  0  0  0  0  0  0  0  0
  110.4860   66.0132   43.3737 H   0  0  0  0  0  0  0  0  0  0  0  0
  109.5673   68.1121   39.7132 H   0  0  0  0  0  0  0  0  0  0  0  0
  107.1651   67.2666   31.2353 H   0  0  0  0  0  0  0  0  0  0  0  0
  111.2758   69.9625   32.5601 H   0  0  0  0  0  0  0  0  0  0  0  0
  111.7255   64.2561   42.0903 H   0  0  0  0  0  0  0  0  0  0  0  0
  110.9032   63.7301   32.6145 H   0  0  0  0  0  0  0  0  0  0  0  0
  112.4620   64.5618   32.1748 H   0  0  0  0  0  0  0  0  0  0  0  0
  108.9550   65.1303   31.9098 H   0  0  0  0  0  0  0  0  0  0  0  0
  112.2754   67.3079   32.9792 H   0  0  0  0  0  0  0  0  0  0  0  0
  112.8674   64.2901   36.3891 H   0  0  0  0  0  0  0  0  0  0  0  0
  112.9043   64.0089   34.3865 H   0  0  0  0  0  0  0  0  0  0  0  0
  1  4  2  0
  1  5  1  0
  2  3  2  0
  2  6  1  0
  3  7  1  0
  4  8  1  0
  5  9  2  0
  6 10  2  0
  7 11  2  0
  8 12  2  0
  9 12  1  0
  9 17  1  0
 10 11  1  0
 10 18  1  0
 11 19  1  0
 12 23  1  0
 13 16  1  0
 13 18  1  0
 13 19  2  0
 14 17  2  0
 14 20  1  0
 14 23  1  0
 15 20  1  0
 15 21  1  0
 15 22  2  0
 16 21  1  0
  1 24  1  0
  2 25  1  0
  3 26  1  0
  4 27  1  0
  5 28  1  0
  6 29  1  0
  7 30  1  0
  8 31  1  0
 16 32  1  0
 16 33  1  0
 18 34  1  0
 19 35  1  0
 20 36  1  0
 21 37  1  0
M  CHG  1  19   1
M  END
>  <s_m_entry_id>  (111) 
21895

>  <s_m_Source_Path>  (111) 
C:\Users\vinicius\Downloads\Ligands_Ecoli

>  <s_m_Source_File>  (111) 
Ligands_Ecoli_o.sdf

>  <i_m_Source_File_Index>  (111) 
52

>  <i_f3d_flags>  (111) 
0

>  <r_epik_Ionization_Penalty>  (111) 
  2.2400

>  <r_epik_State_Penalty>  (111) 
  2.3852

>  <i_epik_Tot_Q>  (111) 
1

>  <s_m_job_name>  (111) 
ligs_ecFabI_ligprep_2

>  <class_value>  (111) 
0

>  <FRED Chemgauss4 score>  (111) 
-14.872121

>  <Name>  (111) 
CHEMBL393298

>  <Set>  (111) 
training

>  <HBA count>  (111) 
3

>  <HBD count>  (111) 
3

>  <ExactMolWt>  (111) 
324.09135748809035

>  <NumRotatableBounds>  (111) 
3

>  <FractionCsp3>  (111) 
0.0625

>  <TPSA>  (111) 
83.94999999999999

>  <LogP_WildmanCrippen>  (111) 
2.9133999999999993

>  <General_Cluster>  (111) 
3

>  <Biological_Cluster>  (111) 
2

>  <Physicochemical_Cluster>  (111) 
9

>  <Structural_Cluster>  (111) 
4

$$$$
CHEMBL435958
     RDKit          3D

 32 34  0  0  0  0  0  0  0  0999 V2000
  111.1558   69.0692   32.2355 C   0  0  0  0  0  0  0  0  0  0  0  0
  109.8316   69.2008   31.8175 C   0  0  0  0  0  0  0  0  0  0  0  0
  111.6135   67.8469   32.7279 C   0  0  0  0  0  0  0  0  0  0  0  0
  112.3284   65.4018   38.8154 C   0  0  0  0  0  0  0  0  0  0  0  0
  109.4227   66.8881   32.3844 C   0  0  0  0  0  0  0  0  0  0  0  0
  111.5059   65.3562   35.8402 C   0  0  0  0  0  0  0  0  0  0  0  0
  112.3912   65.3211   40.1891 C   0  0  0  0  0  0  0  0  0  0  0  0
  110.1810   64.6737   39.3259 C   0  0  0  0  0  0  0  0  0  0  0  0
  109.5348   64.7796   35.0140 C   0  0  0  0  0  0  0  0  0  0  0  0
  111.0480   65.0269   38.3152 C   0  0  0  0  0  0  0  0  0  0  0  0
  108.9651   68.1103   31.8919 C   0  0  0  0  0  0  0  0  0  0  0  0
  110.7470   66.7565   32.8024 C   0  0  0  0  0  0  0  0  0  0  0  0
  110.6933   65.0181   36.8852 C   0  0  0  0  0  0  0  0  0  0  0  0
  107.5677   68.2488   31.4513 C   0  0  0  0  0  0  0  0  0  0  0  0
  111.2362   65.4495   33.3292 C   0  0  0  0  0  0  0  0  0  0  0  0
  110.7635   65.1990   34.6947 N   0  0  0  0  0  0  0  0  0  0  0  0
  109.4800   64.6657   36.3449 N   0  0  0  0  0  4  0  0  0  0  0  0
  106.7886   67.2262   31.5303 O   0  0  0  0  0  1  0  0  0  0  0  0
  107.1697   69.3878   31.0007 O   0  0  0  0  0  0  0  0  0  0  0  0
  110.9108   64.7950   40.8702 S   0  0  0  0  0  0  0  0  0  0  0  0
  111.8391   69.9292   32.1769 H   0  0  0  0  0  0  0  0  0  0  0  0
  109.4706   70.1646   31.4292 H   0  0  0  0  0  0  0  0  0  0  0  0
  112.6578   67.7430   33.0574 H   0  0  0  0  0  0  0  0  0  0  0  0
  113.1681   65.7185   38.1793 H   0  0  0  0  0  0  0  0  0  0  0  0
  108.7393   66.0281   32.4432 H   0  0  0  0  0  0  0  0  0  0  0  0
  112.5522   65.6898   35.9036 H   0  0  0  0  0  0  0  0  0  0  0  0
  113.2868   65.5658   40.7790 H   0  0  0  0  0  0  0  0  0  0  0  0
  109.1423   64.3517   39.1604 H   0  0  0  0  0  0  0  0  0  0  0  0
  108.7173   64.5669   34.3094 H   0  0  0  0  0  0  0  0  0  0  0  0
  110.8737   64.6438   32.6739 H   0  0  0  0  0  0  0  0  0  0  0  0
  112.3356   65.4799   33.3491 H   0  0  0  0  0  0  0  0  0  0  0  0
  108.6558   64.3609   36.8822 H   0  0  0  0  0  0  0  0  0  0  0  0
  1  2  2  0
  1  3  1  0
  2 11  1  0
  3 12  2  0
  4  7  2  0
  4 10  1  0
  5 11  2  0
  5 12  1  0
  6 13  2  0
  6 16  1  0
  7 20  1  0
  8 10  2  0
  8 20  1  0
  9 16  1  0
  9 17  2  0
 10 13  1  0
 11 14  1  0
 12 15  1  0
 13 17  1  0
 14 18  1  0
 14 19  2  0
 15 16  1  0
  1 21  1  0
  2 22  1  0
  3 23  1  0
  4 24  1  0
  5 25  1  0
  6 26  1  0
  7 27  1  0
  8 28  1  0
  9 29  1  0
 15 30  1  0
 15 31  1  0
 17 32  1  0
M  CHG  2  17   1  18  -1
M  END
>  <s_m_entry_id>  (112) 
21868

>  <s_m_Source_Path>  (112) 
C:\Users\vinicius\Downloads\Ligands_Ecoli

>  <s_m_Source_File>  (112) 
Ligands_Ecoli_o.sdf

>  <i_m_Source_File_Index>  (112) 
38

>  <i_f3d_flags>  (112) 
0

>  <r_lp_tautomer_probability>  (112) 
1

>  <r_epik_Ionization_Penalty>  (112) 
  0.8999

>  <r_epik_State_Penalty>  (112) 
  0.9395

>  <i_epik_Tot_Q>  (112) 
0

>  <s_m_job_name>  (112) 
ligs_ecFabI_ligprep_2

>  <class_value>  (112) 
0

>  <FRED Chemgauss4 score>  (112) 
-14.872710

>  <Name>  (112) 
CHEMBL435958

>  <Set>  (112) 
training

>  <HBA count>  (112) 
4

>  <HBD count>  (112) 
0

>  <ExactMolWt>  (112) 
284.06194862400037

>  <NumRotatableBounds>  (112) 
4

>  <FractionCsp3>  (112) 
0.06666666666666667

>  <TPSA>  (112) 
59.199999999999996

>  <LogP_WildmanCrippen>  (112) 
1.4425000000000001

>  <General_Cluster>  (112) 
2

>  <Biological_Cluster>  (112) 
2

>  <Physicochemical_Cluster>  (112) 
6

>  <Structural_Cluster>  (112) 
1

$$$$
CHEMBL309025
     RDKit          3D

 51 55  0  0  0  0  0  0  0  0999 V2000
  109.1988   68.9275   43.1308 C   0  0  0  0  0  0  0  0  0  0  0  0
  109.2279   67.9599   44.1327 C   0  0  0  0  0  0  0  0  0  0  0  0
  109.5223   68.6003   41.8092 C   0  0  0  0  0  0  0  0  0  0  0  0
  109.3145   65.1868   35.4572 C   0  0  0  0  0  0  0  0  0  0  0  0
  108.7028   63.0067   44.3015 C   0  0  0  0  0  0  0  0  0  0  0  0
  108.2340   62.9060   41.9336 C   0  0  0  0  0  0  0  0  0  0  0  0
  109.5796   66.6376   43.8475 C   0  0  0  0  0  0  0  0  0  0  0  0
  107.4645   62.4241   44.5715 C   0  0  0  0  0  0  0  0  0  0  0  0
  106.9957   62.3233   42.2035 C   0  0  0  0  0  0  0  0  0  0  0  0
  109.2424   65.8194   34.2162 C   0  0  0  0  0  0  0  0  0  0  0  0
  111.5556   65.2618   33.7975 C   0  0  0  0  0  0  0  0  0  0  0  0
  109.8812   67.2739   41.4960 C   0  0  0  0  0  0  0  0  0  0  0  0
  110.5072   64.5916   35.8684 C   0  0  0  0  0  0  0  0  0  0  0  0
  110.2587   66.5999   40.3028 C   0  0  0  0  0  0  0  0  0  0  0  0
  109.0875   63.2477   42.9826 C   0  0  0  0  0  0  0  0  0  0  0  0
  109.9008   66.3225   42.5221 C   0  0  0  0  0  0  0  0  0  0  0  0
  111.6277   64.6291   35.0386 C   0  0  0  0  0  0  0  0  0  0  0  0
  106.6110   62.0824   43.5225 C   0  0  0  0  0  0  0  0  0  0  0  0
  110.3629   65.8569   33.3863 C   0  0  0  0  0  0  0  0  0  0  0  0
  110.4896   65.2791   40.6244 C   0  0  0  0  0  0  0  0  0  0  0  0
  110.5149   63.9430   37.1885 C   0  0  0  0  0  0  0  0  0  0  0  0
  110.4025   67.0918   38.9060 C   0  0  0  0  0  0  0  0  0  0  0  0
  110.9141   64.2000   39.6950 C   0  0  0  0  0  0  0  0  0  0  0  0
  111.2795   66.1199   38.0981 C   0  0  0  0  0  0  0  0  0  0  0  0
  110.4236   63.8757   42.6911 C   0  0  0  0  0  0  0  0  0  0  0  0
  110.2759   65.1186   41.9634 N   0  0  0  0  0  0  0  0  0  0  0  0
  110.8692   64.7138   38.3021 N   0  0  0  0  0  0  0  0  0  0  0  0
  112.7356   64.0893   35.3965 O   0  0  0  0  0  1  0  0  0  0  0  0
  110.1980   62.7545   37.2140 O   0  0  0  0  0  0  0  0  0  0  0  0
  105.4033   61.5127   43.7861 O   0  0  0  0  0  0  0  0  0  0  0  0
  110.2712   66.6363   31.8544 Cl  0  0  0  0  0  0  0  0  0  0  0  0
  108.9182   69.9611   43.3816 H   0  0  0  0  0  0  0  0  0  0  0  0
  108.9700   68.2410   45.1644 H   0  0  0  0  0  0  0  0  0  0  0  0
  109.4967   69.3698   41.0236 H   0  0  0  0  0  0  0  0  0  0  0  0
  108.4309   65.1573   36.1116 H   0  0  0  0  0  0  0  0  0  0  0  0
  109.3760   63.2761   45.1287 H   0  0  0  0  0  0  0  0  0  0  0  0
  108.5374   63.0960   40.8935 H   0  0  0  0  0  0  0  0  0  0  0  0
  109.6031   65.8717   44.6367 H   0  0  0  0  0  0  0  0  0  0  0  0
  107.1611   62.2341   45.6116 H   0  0  0  0  0  0  0  0  0  0  0  0
  106.3226   62.0538   41.3763 H   0  0  0  0  0  0  0  0  0  0  0  0
  108.3019   66.2887   33.8919 H   0  0  0  0  0  0  0  0  0  0  0  0
  112.4393   65.2914   33.1431 H   0  0  0  0  0  0  0  0  0  0  0  0
  109.4088   67.1609   38.4392 H   0  0  0  0  0  0  0  0  0  0  0  0
  110.8768   68.0842   38.9178 H   0  0  0  0  0  0  0  0  0  0  0  0
  111.9397   63.8858   39.9390 H   0  0  0  0  0  0  0  0  0  0  0  0
  110.2383   63.3378   39.7943 H   0  0  0  0  0  0  0  0  0  0  0  0
  111.1920   66.3652   37.0294 H   0  0  0  0  0  0  0  0  0  0  0  0
  112.3182   66.2274   38.4437 H   0  0  0  0  0  0  0  0  0  0  0  0
  110.9395   64.0767   43.6416 H   0  0  0  0  0  0  0  0  0  0  0  0
  111.0057   63.1785   42.0706 H   0  0  0  0  0  0  0  0  0  0  0  0
  104.7974   61.2701   43.0417 H   0  0  0  0  0  0  0  0  0  0  0  0
  1  2  2  0
  1  3  1  0
  2  7  1  0
  3 12  2  0
  4 10  2  0
  4 13  1  0
  5  8  2  0
  5 15  1  0
  6  9  1  0
  6 15  2  0
  7 16  2  0
  8 18  1  0
  9 18  2  0
 10 19  1  0
 11 17  1  0
 11 19  2  0
 12 14  1  0
 12 16  1  0
 13 17  2  0
 13 21  1  0
 14 20  2  0
 14 22  1  0
 15 25  1  0
 16 26  1  0
 17 28  1  0
 18 30  1  0
 19 31  1  0
 20 23  1  0
 20 26  1  0
 21 27  1  0
 21 29  2  0
 22 24  1  0
 23 27  1  0
 24 27  1  0
 25 26  1  0
  1 32  1  0
  2 33  1  0
  3 34  1  0
  4 35  1  0
  5 36  1  0
  6 37  1  0
  7 38  1  0
  8 39  1  0
  9 40  1  0
 10 41  1  0
 11 42  1  0
 22 43  1  0
 22 44  1  0
 23 45  1  0
 23 46  1  0
 24 47  1  0
 24 48  1  0
 25 49  1  0
 25 50  1  0
 30 51  1  0
M  CHG  1  28  -1
M  END
>  <s_m_entry_id>  (113) 
21822

>  <s_m_Source_Path>  (113) 
C:\Users\vinicius\Downloads\Ligands_Ecoli

>  <s_m_Source_File>  (113) 
Ligands_Ecoli_o.sdf

>  <i_m_Source_File_Index>  (113) 
11

>  <i_f3d_flags>  (113) 
0

>  <r_lp_tautomer_probability>  (113) 
0.999999999997365

>  <r_epik_Ionization_Penalty>  (113) 
  0.3470

>  <r_epik_State_Penalty>  (113) 
  0.3422

>  <i_epik_Tot_Q>  (113) 
-1

>  <s_m_job_name>  (113) 
ligs_ecFabI_ligprep_2

>  <class_value>  (113) 
0

>  <FRED Chemgauss4 score>  (113) 
-15.839524

>  <Name>  (113) 
CHEMBL309025

>  <Set>  (113) 
test

>  <HBA count>  (113) 
4

>  <HBD count>  (113) 
1

>  <ExactMolWt>  (113) 
431.11679375991054

>  <NumRotatableBounds>  (113) 
4

>  <FractionCsp3>  (113) 
0.16

>  <TPSA>  (113) 
68.53

>  <LogP_WildmanCrippen>  (113) 
4.320700000000004

>  <General_Cluster>  (113) 
1

>  <Biological_Cluster>  (113) 
2

>  <Physicochemical_Cluster>  (113) 
2

>  <Structural_Cluster>  (113) 
7

$$$$
CHEMBL392025
     RDKit          3D

 35 38  0  0  0  0  0  0  0  0999 V2000
  110.5469   67.0778   33.4792 C   0  0  0  0  0  0  0  0  0  0  0  0
  104.6597   65.2471   43.5809 C   0  0  0  0  0  0  0  0  0  0  0  0
  111.0479   65.9741   32.7850 C   0  0  0  0  0  0  0  0  0  0  0  0
  104.6627   63.9146   43.9784 C   0  0  0  0  0  0  0  0  0  0  0  0
  110.4423   67.0648   34.8758 C   0  0  0  0  0  0  0  0  0  0  0  0
  105.7231   65.7696   42.8392 C   0  0  0  0  0  0  0  0  0  0  0  0
  111.4618   64.8199   33.4583 C   0  0  0  0  0  0  0  0  0  0  0  0
  105.7252   63.0702   43.6468 C   0  0  0  0  0  0  0  0  0  0  0  0
  110.8533   65.9134   35.5684 C   0  0  0  0  0  0  0  0  0  0  0  0
  106.8094   64.9379   42.4907 C   0  0  0  0  0  0  0  0  0  0  0  0
  111.3484   64.8295   34.8488 C   0  0  0  0  0  0  0  0  0  0  0  0
  106.7902   63.6017   42.9017 C   0  0  0  0  0  0  0  0  0  0  0  0
  111.3391   64.4293   37.0247 C   0  0  0  0  0  0  0  0  0  0  0  0
  108.7325   64.2868   41.6278 C   0  0  0  0  0  0  0  0  0  0  0  0
  110.6131   65.2868   40.2882 C   0  0  0  0  0  0  0  0  0  0  0  0
  111.9232   64.8477   39.6699 C   0  0  0  0  0  0  0  0  0  0  0  0
  110.8552   65.6465   36.9183 N   0  0  0  0  0  0  0  0  0  0  0  0
  107.9282   65.3152   41.7624 N   0  0  0  0  0  0  0  0  0  0  0  0
  111.6513   63.8949   35.8057 N   0  0  0  0  0  0  0  0  0  0  0  0
  109.9764   64.2457   40.9533 N   0  0  0  0  0  0  0  0  0  0  0  0
  110.2189   66.4429   40.1578 O   0  0  0  0  0  0  0  0  0  0  0  0
  108.2239   62.8207   42.3473 S   0  0  0  0  0  0  0  0  0  0  0  0
  111.5903   63.5251   38.4692 S   0  0  0  0  0  0  0  0  0  0  0  0
  110.2297   67.9707   32.9205 H   0  0  0  0  0  0  0  0  0  0  0  0
  103.8135   65.8954   43.8524 H   0  0  0  0  0  0  0  0  0  0  0  0
  111.1183   66.0133   31.6880 H   0  0  0  0  0  0  0  0  0  0  0  0
  103.8175   63.5202   44.5615 H   0  0  0  0  0  0  0  0  0  0  0  0
  110.0473   67.9364   35.4183 H   0  0  0  0  0  0  0  0  0  0  0  0
  105.7136   66.8247   42.5283 H   0  0  0  0  0  0  0  0  0  0  0  0
  111.8574   63.9473   32.9178 H   0  0  0  0  0  0  0  0  0  0  0  0
  105.7274   62.0161   43.9613 H   0  0  0  0  0  0  0  0  0  0  0  0
  112.3951   65.7002   39.1594 H   0  0  0  0  0  0  0  0  0  0  0  0
  112.6011   64.4788   40.4537 H   0  0  0  0  0  0  0  0  0  0  0  0
  112.0438   62.9578   35.6362 H   0  0  0  0  0  0  0  0  0  0  0  0
  110.4662   63.3396   40.9557 H   0  0  0  0  0  0  0  0  0  0  0  0
  1  3  2  0
  1  5  1  0
  2  4  2  0
  2  6  1  0
  3  7  1  0
  4  8  1  0
  5  9  2  0
  6 10  2  0
  7 11  2  0
  8 12  2  0
  9 11  1  0
  9 17  1  0
 10 12  1  0
 10 18  1  0
 11 19  1  0
 12 22  1  0
 13 17  2  0
 13 19  1  0
 13 23  1  0
 14 18  2  0
 14 20  1  0
 14 22  1  0
 15 16  1  0
 15 20  1  0
 15 21  2  0
 16 23  1  0
  1 24  1  0
  2 25  1  0
  3 26  1  0
  4 27  1  0
  5 28  1  0
  6 29  1  0
  7 30  1  0
  8 31  1  0
 16 32  1  0
 16 33  1  0
 19 34  1  0
 20 35  1  0
M  END
>  <s_m_entry_id>  (114) 
21922

>  <s_m_Source_Path>  (114) 
C:\Users\vinicius\Downloads\Ligands_Ecoli

>  <s_m_Source_File>  (114) 
Ligands_Ecoli_o.sdf

>  <i_m_Source_File_Index>  (114) 
64

>  <i_f3d_flags>  (114) 
0

>  <r_epik_Ionization_Penalty>  (114) 
  0.1043

>  <r_epik_State_Penalty>  (114) 
  0.0906

>  <i_epik_Tot_Q>  (114) 
0

>  <s_m_job_name>  (114) 
ligs_ecFabI_ligprep_2

>  <class_value>  (114) 
0

>  <FRED Chemgauss4 score>  (114) 
-14.147027

>  <Name>  (114) 
CHEMBL392025

>  <Set>  (114) 
test

>  <HBA count>  (114) 
5

>  <HBD count>  (114) 
2

>  <ExactMolWt>  (114) 
340.0452530040003

>  <NumRotatableBounds>  (114) 
4

>  <FractionCsp3>  (114) 
0.0625

>  <TPSA>  (114) 
70.67

>  <LogP_WildmanCrippen>  (114) 
3.9034000000000013

>  <General_Cluster>  (114) 
3

>  <Biological_Cluster>  (114) 
2

>  <Physicochemical_Cluster>  (114) 
9

>  <Structural_Cluster>  (114) 
4

$$$$
CHEMBL2178315
     RDKit          3D

 22 23  0  0  0  0  0  0  0  0999 V2000
  110.6715   68.4875   32.6295 C   0  0  0  0  0  0  0  0  0  0  0  0
  109.7017   65.5405   36.0390 C   0  0  0  0  0  0  0  0  0  0  0  0
  110.0442   65.5252   37.3911 C   0  0  0  0  0  0  0  0  0  0  0  0
  110.9578   67.2491   33.1930 C   0  0  0  0  0  0  0  0  0  0  0  0
  109.4028   68.7356   32.1176 C   0  0  0  0  0  0  0  0  0  0  0  0
  112.1541   64.4826   36.8449 C   0  0  0  0  0  0  0  0  0  0  0  0
  111.8117   64.4979   35.4928 C   0  0  0  0  0  0  0  0  0  0  0  0
  110.5855   65.0268   35.0899 C   0  0  0  0  0  0  0  0  0  0  0  0
  111.2704   64.9963   37.7940 C   0  0  0  0  0  0  0  0  0  0  0  0
  109.9487   66.3000   33.2202 C   0  0  0  0  0  0  0  0  0  0  0  0
  108.4633   67.7199   32.1927 C   0  0  0  0  0  0  0  0  0  0  0  0
  108.7044   66.5042   32.7328 N   0  0  0  0  0  0  0  0  0  0  0  0
  112.6363   64.0210   34.6333 O   0  0  0  0  0  1  0  0  0  0  0  0
  110.2078   65.0617   33.7771 O   0  0  0  0  0  0  0  0  0  0  0  0
  107.2343   67.9464   31.7037 F   0  0  0  0  0  0  0  0  0  0  0  0
  111.7324   64.9770   39.6269 Br  0  0  0  0  0  0  0  0  0  0  0  0
  111.4457   69.2679   32.5888 H   0  0  0  0  0  0  0  0  0  0  0  0
  108.7347   65.9576   35.7212 H   0  0  0  0  0  0  0  0  0  0  0  0
  109.3473   65.9302   38.1396 H   0  0  0  0  0  0  0  0  0  0  0  0
  111.9541   67.0297   33.6043 H   0  0  0  0  0  0  0  0  0  0  0  0
  109.1528   69.7075   31.6672 H   0  0  0  0  0  0  0  0  0  0  0  0
  113.1210   64.0654   37.1627 H   0  0  0  0  0  0  0  0  0  0  0  0
  1  4  2  0
  1  5  1  0
  2  3  2  0
  2  8  1  0
  3  9  1  0
  4 10  1  0
  5 11  2  0
  6  7  1  0
  6  9  2  0
  7  8  2  0
  7 13  1  0
  8 14  1  0
  9 16  1  0
 10 12  2  0
 10 14  1  0
 11 12  1  0
 11 15  1  0
  1 17  1  0
  2 18  1  0
  3 19  1  0
  4 20  1  0
  5 21  1  0
  6 22  1  0
M  CHG  1  13  -1
M  END
>  <s_m_entry_id>  (115) 
22012

>  <s_m_Source_Path>  (115) 
C:\Users\vinicius\Downloads\Ligands_Ecoli

>  <s_m_Source_File>  (115) 
Ligands_Ecoli_o.sdf

>  <i_m_Source_File_Index>  (115) 
105

>  <i_f3d_flags>  (115) 
0

>  <r_lp_tautomer_probability>  (115) 
1

>  <r_epik_Ionization_Penalty>  (115) 
  2.1376

>  <r_epik_State_Penalty>  (115) 
  2.2765

>  <i_epik_Tot_Q>  (115) 
-1

>  <s_m_job_name>  (115) 
ligs_ecFabI_ligprep_2

>  <class_value>  (115) 
1

>  <FRED Chemgauss4 score>  (115) 
-14.620900

>  <Name>  (115) 
CHEMBL2178315

>  <Set>  (115) 
test

>  <HBA count>  (115) 
3

>  <HBD count>  (115) 
0

>  <ExactMolWt>  (115) 
281.9571423319102

>  <NumRotatableBounds>  (115) 
2

>  <FractionCsp3>  (115) 
0.0

>  <TPSA>  (115) 
45.18000000000001

>  <LogP_WildmanCrippen>  (115) 
2.849100000000001

>  <General_Cluster>  (115) 
2

>  <Biological_Cluster>  (115) 
1

>  <Physicochemical_Cluster>  (115) 
6

>  <Structural_Cluster>  (115) 
1

$$$$
CHEMBL1484978
     RDKit          3D

 38 39  0  0  0  0  0  0  0  0999 V2000
  109.2842   66.8782   33.4184 C   0  0  0  0  0  0  0  0  0  0  0  0
  110.8219   66.1333   38.3016 C   0  0  0  0  0  0  0  0  0  0  0  0
  111.3769   65.8934   32.7197 C   0  0  0  0  0  0  0  0  0  0  0  0
  110.6917   63.8189   38.9827 C   0  0  0  0  0  0  0  0  0  0  0  0
  110.2649   65.0848   34.7064 C   0  0  0  0  0  0  0  0  0  0  0  0
  110.2396   65.5752   40.5790 C   0  0  0  0  0  0  0  0  0  0  0  0
  109.2405   66.0108   34.5099 C   0  0  0  0  0  0  0  0  0  0  0  0
  110.4771   66.5327   39.5928 C   0  0  0  0  0  0  0  0  0  0  0  0
  111.3331   65.0261   33.8113 C   0  0  0  0  0  0  0  0  0  0  0  0
  110.3524   66.8194   32.5233 C   0  0  0  0  0  0  0  0  0  0  0  0
  110.9292   64.7764   37.9965 C   0  0  0  0  0  0  0  0  0  0  0  0
  110.3469   64.2183   40.2739 C   0  0  0  0  0  0  0  0  0  0  0  0
  109.8776   65.9935   41.9477 C   0  0  0  0  0  0  0  0  0  0  0  0
  110.1834   64.1904   35.8645 C   0  0  0  0  0  0  0  0  0  0  0  0
  108.0813   66.1014   35.4491 C   0  0  0  0  0  0  0  0  0  0  0  0
  110.3690   67.9926   39.8912 C   0  0  0  0  0  0  0  0  0  0  0  0
  109.3143   68.5876   31.3184 C   0  0  0  0  0  0  0  0  0  0  0  0
  112.2884   64.1833   33.9692 O   0  0  0  0  0  1  0  0  0  0  0  0
  110.8194   66.1878   42.8011 O   0  0  0  0  0  1  0  0  0  0  0  0
  108.6339   66.1475   42.2353 O   0  0  0  0  0  0  0  0  0  0  0  0
  109.2611   63.3952   36.0567 O   0  0  0  0  0  0  0  0  0  0  0  0
  110.1183   63.2668   41.2225 O   0  0  0  0  0  0  0  0  0  0  0  0
  111.2752   64.3756   36.7032 O   0  0  0  0  0  0  0  0  0  0  0  0
  110.3946   67.6662   31.4584 O   0  0  0  0  0  0  0  0  0  0  0  0
  108.4764   67.6085   33.2635 H   0  0  0  0  0  0  0  0  0  0  0  0
  111.0092   66.8884   37.5239 H   0  0  0  0  0  0  0  0  0  0  0  0
  112.2193   65.8471   32.0138 H   0  0  0  0  0  0  0  0  0  0  0  0
  110.7763   62.7489   38.7421 H   0  0  0  0  0  0  0  0  0  0  0  0
  108.4466   66.0728   36.4863 H   0  0  0  0  0  0  0  0  0  0  0  0
  107.5421   67.0444   35.2761 H   0  0  0  0  0  0  0  0  0  0  0  0
  107.4021   65.2536   35.2761 H   0  0  0  0  0  0  0  0  0  0  0  0
  110.3578   68.1443   40.9806 H   0  0  0  0  0  0  0  0  0  0  0  0
  111.2305   68.5205   39.4563 H   0  0  0  0  0  0  0  0  0  0  0  0
  109.4391   68.3879   39.4563 H   0  0  0  0  0  0  0  0  0  0  0  0
  108.9592   68.8904   32.3145 H   0  0  0  0  0  0  0  0  0  0  0  0
  109.6582   69.4747   30.7664 H   0  0  0  0  0  0  0  0  0  0  0  0
  108.4925   68.1080   30.7664 H   0  0  0  0  0  0  0  0  0  0  0  0
  109.8727   63.5348   42.1433 H   0  0  0  0  0  0  0  0  0  0  0  0
  1  7  2  0
  1 10  1  0
  2  8  2  0
  2 11  1  0
  3  9  1  0
  3 10  2  0
  4 11  2  0
  4 12  1  0
  5  7  1  0
  5  9  2  0
  5 14  1  0
  6  8  1  0
  6 12  2  0
  6 13  1  0
  7 15  1  0
  8 16  1  0
  9 18  1  0
 10 24  1  0
 11 23  1  0
 12 22  1  0
 13 19  1  0
 13 20  2  0
 14 21  2  0
 14 23  1  0
 17 24  1  0
  1 25  1  0
  2 26  1  0
  3 27  1  0
  4 28  1  0
 15 29  1  0
 15 30  1  0
 15 31  1  0
 16 32  1  0
 16 33  1  0
 16 34  1  0
 17 35  1  0
 17 36  1  0
 17 37  1  0
 22 38  1  0
M  CHG  2  18  -1  19  -1
M  END
>  <s_m_entry_id>  (116) 
22002

>  <s_m_Source_Path>  (116) 
C:\Users\vinicius\Downloads\Ligands_Ecoli

>  <s_m_Source_File>  (116) 
Ligands_Ecoli_o.sdf

>  <i_m_Source_File_Index>  (116) 
102

>  <i_f3d_flags>  (116) 
0

>  <r_epik_Ionization_Penalty>  (116) 
  1.2665

>  <r_epik_State_Penalty>  (116) 
  1.3376

>  <i_epik_Tot_Q>  (116) 
-2

>  <s_m_job_name>  (116) 
ligs_ecFabI_ligprep_2

>  <class_value>  (116) 
0

>  <FRED Chemgauss4 score>  (116) 
-14.431087

>  <Name>  (116) 
CHEMBL1484978

>  <Set>  (116) 
test

>  <HBA count>  (116) 
7

>  <HBD count>  (116) 
1

>  <ExactMolWt>  (116) 
330.07504994782033

>  <NumRotatableBounds>  (116) 
8

>  <FractionCsp3>  (116) 
0.17647058823529413

>  <TPSA>  (116) 
118.95

>  <LogP_WildmanCrippen>  (116) 
0.6739399999999998

>  <General_Cluster>  (116) 
5

>  <Biological_Cluster>  (116) 
2

>  <Physicochemical_Cluster>  (116) 
8

>  <Structural_Cluster>  (116) 
2

$$$$
CHEMBL567311
     RDKit          3D

 54 57  0  0  0  0  0  0  0  0999 V2000
  107.2532   69.5183   30.6665 C   0  0  0  0  0  0  0  0  0  0  0  0
  106.3916   68.8700   31.5551 C   0  0  0  0  0  0  0  0  0  0  0  0
  108.6443   69.4086   30.7984 C   0  0  0  0  0  0  0  0  0  0  0  0
  106.8854   68.0902   32.6052 C   0  0  0  0  0  0  0  0  0  0  0  0
  109.8642   66.3388   39.4591 C   0  0  0  0  0  0  0  0  0  0  0  0
  112.0267   65.6006   40.0444 C   0  0  0  0  0  0  0  0  0  0  0  0
  109.1629   68.6293   31.8473 C   0  0  0  0  0  0  0  0  0  0  0  0
  111.0206   65.6600   39.1079 C   0  0  0  0  0  0  0  0  0  0  0  0
  109.7373   66.9472   40.7202 C   0  0  0  0  0  0  0  0  0  0  0  0
  110.4595   68.2780   32.3071 C   0  0  0  0  0  0  0  0  0  0  0  0
  108.2721   67.9998   32.7108 C   0  0  0  0  0  0  0  0  0  0  0  0
  110.2758   67.4690   33.4046 C   0  0  0  0  0  0  0  0  0  0  0  0
  110.8318   66.8734   41.6021 C   0  0  0  0  0  0  0  0  0  0  0  0
  108.0371   67.3614   43.5571 C   0  0  0  0  0  0  0  0  0  0  0  0
  111.1581   65.0223   37.8119 C   0  0  0  0  0  0  0  0  0  0  0  0
  110.4226   65.3139   36.7127 C   0  0  0  0  0  0  0  0  0  0  0  0
  110.6375   64.5617   35.4414 C   0  0  0  0  0  0  0  0  0  0  0  0
  108.4126   67.5848   41.0603 C   0  0  0  0  0  0  0  0  0  0  0  0
  108.8746   68.5960   43.8384 C   0  0  0  0  0  0  0  0  0  0  0  0
  110.2220   68.7394   43.1419 C   0  0  0  0  0  0  0  0  0  0  0  0
  111.7496   68.6955   31.7257 C   0  0  0  0  0  0  0  0  0  0  0  0
  111.2249   64.6646   33.0496 C   0  0  0  0  0  0  0  0  0  0  0  0
  111.2218   66.7706   34.3381 C   0  0  0  0  0  0  0  0  0  0  0  0
  111.9536   66.1778   41.2631 N   0  0  0  0  0  0  0  0  0  0  0  0
  110.8610   67.4716   42.8551 N   0  0  0  0  0  0  0  0  0  0  0  0
  107.8299   66.9918   42.2515 N   0  0  0  0  0  0  0  0  0  0  0  0
  111.0243   65.3223   34.3344 N   0  0  0  0  0  0  0  0  0  0  0  0
  107.5148   66.7449   44.4904 O   0  0  0  0  0  0  0  0  0  0  0  0
  110.4486   63.3448   35.4111 O   0  0  0  0  0  0  0  0  0  0  0  0
  108.9525   67.2943   33.6577 O   0  0  0  0  0  0  0  0  0  0  0  0
  106.8331   70.1245   29.8504 H   0  0  0  0  0  0  0  0  0  0  0  0
  105.3043   68.9751   31.4260 H   0  0  0  0  0  0  0  0  0  0  0  0
  109.3167   69.9219   30.0953 H   0  0  0  0  0  0  0  0  0  0  0  0
  106.2156   67.5758   33.3100 H   0  0  0  0  0  0  0  0  0  0  0  0
  109.0337   66.4024   38.7406 H   0  0  0  0  0  0  0  0  0  0  0  0
  112.9438   65.0511   39.7855 H   0  0  0  0  0  0  0  0  0  0  0  0
  111.9226   64.2375   37.7141 H   0  0  0  0  0  0  0  0  0  0  0  0
  109.6634   66.1087   36.7570 H   0  0  0  0  0  0  0  0  0  0  0  0
  108.5670   68.6599   41.2344 H   0  0  0  0  0  0  0  0  0  0  0  0
  107.7231   67.4210   40.2190 H   0  0  0  0  0  0  0  0  0  0  0  0
  108.2690   69.4696   43.5553 H   0  0  0  0  0  0  0  0  0  0  0  0
  109.1325   68.5071   44.9040 H   0  0  0  0  0  0  0  0  0  0  0  0
  110.0685   69.2746   42.1932 H   0  0  0  0  0  0  0  0  0  0  0  0
  110.8843   69.2882   43.8276 H   0  0  0  0  0  0  0  0  0  0  0  0
  112.4591   68.9251   32.5344 H   0  0  0  0  0  0  0  0  0  0  0  0
  112.1523   67.8818   31.1046 H   0  0  0  0  0  0  0  0  0  0  0  0
  111.5993   69.5909   31.1046 H   0  0  0  0  0  0  0  0  0  0  0  0
  111.5421   63.6245   33.2157 H   0  0  0  0  0  0  0  0  0  0  0  0
  110.2829   64.6744   32.4816 H   0  0  0  0  0  0  0  0  0  0  0  0
  112.0011   65.1984   32.4816 H   0  0  0  0  0  0  0  0  0  0  0  0
  112.2540   66.9892   34.0270 H   0  0  0  0  0  0  0  0  0  0  0  0
  111.0274   67.1377   35.3566 H   0  0  0  0  0  0  0  0  0  0  0  0
  111.3608   66.9908   43.6166 H   0  0  0  0  0  0  0  0  0  0  0  0
  107.1864   66.2022   42.0987 H   0  0  0  0  0  0  0  0  0  0  0  0
  1  2  2  0
  1  3  1  0
  2  4  1  0
  3  7  2  0
  4 11  2  0
  5  8  2  0
  5  9  1  0
  6  8  1  0
  6 24  2  0
  7 10  1  0
  7 11  1  0
  8 15  1  0
  9 13  2  0
  9 18  1  0
 10 12  2  0
 10 21  1  0
 11 30  1  0
 12 23  1  0
 12 30  1  0
 13 24  1  0
 13 25  1  0
 14 19  1  0
 14 26  1  0
 14 28  2  0
 15 16  2  0
 16 17  1  0
 17 27  1  0
 17 29  2  0
 18 26  1  0
 19 20  1  0
 20 25  1  0
 22 27  1  0
 23 27  1  0
  1 31  1  0
  2 32  1  0
  3 33  1  0
  4 34  1  0
  5 35  1  0
  6 36  1  0
 15 37  1  0
 16 38  1  0
 18 39  1  0
 18 40  1  0
 19 41  1  0
 19 42  1  0
 20 43  1  0
 20 44  1  0
 21 45  1  0
 21 46  1  0
 21 47  1  0
 22 48  1  0
 22 49  1  0
 22 50  1  0
 23 51  1  0
 23 52  1  0
 25 53  1  0
 26 54  1  0
M  END
>  <s_m_entry_id>  (117) 
21972

>  <s_m_Source_Path>  (117) 
C:\Users\vinicius\Downloads\Ligands_Ecoli

>  <s_m_Source_File>  (117) 
Ligands_Ecoli_o.sdf

>  <i_m_Source_File_Index>  (117) 
88

>  <i_f3d_flags>  (117) 
0

>  <r_epik_Ionization_Penalty>  (117) 
  0.0217

>  <r_epik_State_Penalty>  (117) 
  0.0175

>  <i_epik_Tot_Q>  (117) 
0

>  <s_m_job_name>  (117) 
ligs_ecFabI_ligprep_2

>  <class_value>  (117) 
1

>  <FRED Chemgauss4 score>  (117) 
-14.957068

>  <Name>  (117) 
CHEMBL567311

>  <Set>  (117) 
test

>  <HBA count>  (117) 
5

>  <HBD count>  (117) 
2

>  <ExactMolWt>  (117) 
404.1848406280007

>  <NumRotatableBounds>  (117) 
6

>  <FractionCsp3>  (117) 
0.2608695652173913

>  <TPSA>  (117) 
87.47000000000001

>  <LogP_WildmanCrippen>  (117) 
3.2398200000000017

>  <General_Cluster>  (117) 
1

>  <Biological_Cluster>  (117) 
1

>  <Physicochemical_Cluster>  (117) 
3

>  <Structural_Cluster>  (117) 
7

$$$$
CHEMBL2178297
     RDKit          3D

 41 42  0  0  0  0  0  0  0  0999 V2000
  112.5786   66.3966   38.4086 C   0  0  0  0  0  0  0  0  0  0  0  0
  111.0366   66.0493   32.6537 C   0  0  0  0  0  0  0  0  0  0  0  0
  112.4622   65.8475   37.1317 C   0  0  0  0  0  0  0  0  0  0  0  0
  111.7256   65.2921   33.6010 C   0  0  0  0  0  0  0  0  0  0  0  0
  111.4414   64.4780   39.3374 C   0  0  0  0  0  0  0  0  0  0  0  0
  109.0353   65.9132   34.0004 C   0  0  0  0  0  0  0  0  0  0  0  0
  112.0683   65.7118   39.5115 C   0  0  0  0  0  0  0  0  0  0  0  0
  109.6914   66.3599   32.8534 C   0  0  0  0  0  0  0  0  0  0  0  0
  111.3249   63.9288   38.0605 C   0  0  0  0  0  0  0  0  0  0  0  0
  111.8353   64.6137   36.9576 C   0  0  0  0  0  0  0  0  0  0  0  0
  111.0695   64.8454   34.7481 C   0  0  0  0  0  0  0  0  0  0  0  0
  109.7244   65.1560   34.9478 C   0  0  0  0  0  0  0  0  0  0  0  0
  111.0011   67.1824   41.2392 C   0  0  0  0  0  0  0  0  0  0  0  0
  112.1925   66.2998   40.8765 C   0  0  0  0  0  0  0  0  0  0  0  0
  107.5037   68.9136   31.1545 C   0  0  0  0  0  0  0  0  0  0  0  0
  107.7885   67.8286   32.1846 C   0  0  0  0  0  0  0  0  0  0  0  0
  108.6136   69.9545   31.0706 C   0  0  0  0  0  0  0  0  0  0  0  0
  109.0053   67.1143   31.9100 N   0  0  0  0  0  0  0  0  0  0  0  0
  110.7453   62.7931   37.9186 O   0  0  0  0  0  1  0  0  0  0  0  0
  108.7663   70.5641   32.3456 O   0  0  0  0  0  0  0  0  0  0  0  0
  111.7434   64.1073   35.6720 O   0  0  0  0  0  0  0  0  0  0  0  0
  109.0889   64.7303   36.0482 F   0  0  0  0  0  0  0  0  0  0  0  0
  113.0728   67.3697   38.5459 H   0  0  0  0  0  0  0  0  0  0  0  0
  111.5540   66.4015   31.7491 H   0  0  0  0  0  0  0  0  0  0  0  0
  112.8648   66.3875   36.2620 H   0  0  0  0  0  0  0  0  0  0  0  0
  112.7864   65.0472   33.4435 H   0  0  0  0  0  0  0  0  0  0  0  0
  111.0389   63.9381   40.2071 H   0  0  0  0  0  0  0  0  0  0  0  0
  107.9745   66.1580   34.1578 H   0  0  0  0  0  0  0  0  0  0  0  0
  110.9129   67.2477   42.3337 H   0  0  0  0  0  0  0  0  0  0  0  0
  111.1505   68.1894   40.8226 H   0  0  0  0  0  0  0  0  0  0  0  0
  110.0813   66.7461   40.8226 H   0  0  0  0  0  0  0  0  0  0  0  0
  112.2624   65.4819   41.6087 H   0  0  0  0  0  0  0  0  0  0  0  0
  113.0939   66.9301   40.8900 H   0  0  0  0  0  0  0  0  0  0  0  0
  107.3903   68.4405   30.1679 H   0  0  0  0  0  0  0  0  0  0  0  0
  106.5855   69.4331   31.4660 H   0  0  0  0  0  0  0  0  0  0  0  0
  107.8706   68.2968   33.1766 H   0  0  0  0  0  0  0  0  0  0  0  0
  106.9605   67.1054   32.1458 H   0  0  0  0  0  0  0  0  0  0  0  0
  109.5557   69.4678   30.7781 H   0  0  0  0  0  0  0  0  0  0  0  0
  108.3559   70.7164   30.3202 H   0  0  0  0  0  0  0  0  0  0  0  0
  109.3917   67.1648   30.9566 H   0  0  0  0  0  0  0  0  0  0  0  0
  108.5983   69.8935   33.0542 H   0  0  0  0  0  0  0  0  0  0  0  0
  1  3  2  0
  1  7  1  0
  2  4  2  0
  2  8  1  0
  3 10  1  0
  4 11  1  0
  5  7  2  0
  5  9  1  0
  6  8  2  0
  6 12  1  0
  7 14  1  0
  8 18  1  0
  9 10  2  0
  9 19  1  0
 10 21  1  0
 11 12  2  0
 11 21  1  0
 12 22  1  0
 13 14  1  0
 15 16  1  0
 15 17  1  0
 16 18  1  0
 17 20  1  0
  1 23  1  0
  2 24  1  0
  3 25  1  0
  4 26  1  0
  5 27  1  0
  6 28  1  0
 13 29  1  0
 13 30  1  0
 13 31  1  0
 14 32  1  0
 14 33  1  0
 15 34  1  0
 15 35  1  0
 16 36  1  0
 16 37  1  0
 17 38  1  0
 17 39  1  0
 18 40  1  0
 20 41  1  0
M  CHG  1  19  -1
M  END
>  <s_m_entry_id>  (118) 
22020

>  <s_m_Source_Path>  (118) 
C:\Users\vinicius\Downloads\Ligands_Ecoli

>  <s_m_Source_File>  (118) 
Ligands_Ecoli_o.sdf

>  <i_m_Source_File_Index>  (118) 
112

>  <i_f3d_flags>  (118) 
0

>  <r_epik_Ionization_Penalty>  (118) 
  1.3118

>  <r_epik_State_Penalty>  (118) 
  1.3851

>  <i_epik_Tot_Q>  (118) 
-1

>  <s_m_job_name>  (118) 
ligs_ecFabI_ligprep_2

>  <class_value>  (118) 
1

>  <FRED Chemgauss4 score>  (118) 
-16.091305

>  <Name>  (118) 
CHEMBL2178297

>  <Set>  (118) 
test

>  <HBA count>  (118) 
4

>  <HBD count>  (118) 
2

>  <ExactMolWt>  (118) 
304.13544526791054

>  <NumRotatableBounds>  (118) 
9

>  <FractionCsp3>  (118) 
0.29411764705882354

>  <TPSA>  (118) 
64.55

>  <LogP_WildmanCrippen>  (118) 
3.0483000000000007

>  <General_Cluster>  (118) 
4

>  <Biological_Cluster>  (118) 
1

>  <Physicochemical_Cluster>  (118) 
3

>  <Structural_Cluster>  (118) 
3

$$$$
CHEMBL2178307
     RDKit          3D

 36 37  0  0  0  0  0  0  0  0999 V2000
  109.0639   65.9439   34.0391 C   0  0  0  0  0  0  0  0  0  0  0  0
  109.2333   65.1142   35.1474 C   0  0  0  0  0  0  0  0  0  0  0  0
  111.4314   65.5335   37.5837 C   0  0  0  0  0  0  0  0  0  0  0  0
  111.2070   63.4176   38.7281 C   0  0  0  0  0  0  0  0  0  0  0  0
  111.9448   66.1080   38.7464 C   0  0  0  0  0  0  0  0  0  0  0  0
  111.7204   63.9920   39.8908 C   0  0  0  0  0  0  0  0  0  0  0  0
  111.2895   65.3868   33.2817 C   0  0  0  0  0  0  0  0  0  0  0  0
  110.0919   66.0802   33.1062 C   0  0  0  0  0  0  0  0  0  0  0  0
  111.4589   64.5571   34.3901 C   0  0  0  0  0  0  0  0  0  0  0  0
  111.0624   64.1883   37.5745 C   0  0  0  0  0  0  0  0  0  0  0  0
  112.0893   65.3372   39.9000 C   0  0  0  0  0  0  0  0  0  0  0  0
  110.4308   64.4208   35.3230 C   0  0  0  0  0  0  0  0  0  0  0  0
  108.8105   69.0664   31.0216 C   0  0  0  0  0  0  0  0  0  0  0  0
  112.7112   65.0527   42.1777 C   0  0  0  0  0  0  0  0  0  0  0  0
  109.9104   66.9680   31.9216 C   0  0  0  0  0  0  0  0  0  0  0  0
  108.9674   68.1436   32.2197 C   0  0  0  0  0  0  0  0  0  0  0  0
  112.5669   63.9269   34.5360 O   0  0  0  0  0  1  0  0  0  0  0  0
  110.5521   63.6191   36.4228 O   0  0  0  0  0  0  0  0  0  0  0  0
  112.5901   65.8979   41.0346 O   0  0  0  0  0  0  0  0  0  0  0  0
  108.1196   66.4908   33.9007 H   0  0  0  0  0  0  0  0  0  0  0  0
  108.4225   65.0067   35.8830 H   0  0  0  0  0  0  0  0  0  0  0  0
  111.3175   66.1413   36.6739 H   0  0  0  0  0  0  0  0  0  0  0  0
  110.9161   62.3568   38.7209 H   0  0  0  0  0  0  0  0  0  0  0  0
  112.2357   67.1688   38.7536 H   0  0  0  0  0  0  0  0  0  0  0  0
  111.8344   63.3842   40.8005 H   0  0  0  0  0  0  0  0  0  0  0  0
  112.1002   65.4943   32.5461 H   0  0  0  0  0  0  0  0  0  0  0  0
  108.6357   70.0946   31.3712 H   0  0  0  0  0  0  0  0  0  0  0  0
  109.7266   69.0367   30.4134 H   0  0  0  0  0  0  0  0  0  0  0  0
  107.9557   68.7356   30.4134 H   0  0  0  0  0  0  0  0  0  0  0  0
  112.6245   65.6580   43.0921 H   0  0  0  0  0  0  0  0  0  0  0  0
  111.9122   64.2969   42.1612 H   0  0  0  0  0  0  0  0  0  0  0  0
  113.6903   64.5516   42.1612 H   0  0  0  0  0  0  0  0  0  0  0  0
  110.8913   67.3668   31.6236 H   0  0  0  0  0  0  0  0  0  0  0  0
  109.4613   66.3695   31.1153 H   0  0  0  0  0  0  0  0  0  0  0  0
  109.3757   68.7215   33.0619 H   0  0  0  0  0  0  0  0  0  0  0  0
  107.9770   67.7313   32.4628 H   0  0  0  0  0  0  0  0  0  0  0  0
  1  2  2  0
  1  8  1  0
  2 12  1  0
  3  5  2  0
  3 10  1  0
  4  6  1  0
  4 10  2  0
  5 11  1  0
  6 11  2  0
  7  8  2  0
  7  9  1  0
  8 15  1  0
  9 12  2  0
  9 17  1  0
 10 18  1  0
 11 19  1  0
 12 18  1  0
 13 16  1  0
 14 19  1  0
 15 16  1  0
  1 20  1  0
  2 21  1  0
  3 22  1  0
  4 23  1  0
  5 24  1  0
  6 25  1  0
  7 26  1  0
 13 27  1  0
 13 28  1  0
 13 29  1  0
 14 30  1  0
 14 31  1  0
 14 32  1  0
 15 33  1  0
 15 34  1  0
 16 35  1  0
 16 36  1  0
M  CHG  1  17  -1
M  END
>  <s_m_entry_id>  (119) 
22047

>  <s_m_Source_Path>  (119) 
C:\Users\vinicius\Downloads\Ligands_Ecoli

>  <s_m_Source_File>  (119) 
Ligands_Ecoli_o.sdf

>  <i_m_Source_File_Index>  (119) 
129

>  <i_f3d_flags>  (119) 
0

>  <r_lp_tautomer_probability>  (119) 
1

>  <r_epik_Ionization_Penalty>  (119) 
  1.5111

>  <r_epik_State_Penalty>  (119) 
  1.6022

>  <i_epik_Tot_Q>  (119) 
-1

>  <s_m_job_name>  (119) 
ligs_ecFabI_ligprep_2

>  <class_value>  (119) 
1

>  <FRED Chemgauss4 score>  (119) 
-16.687149

>  <Name>  (119) 
CHEMBL2178307

>  <Set>  (119) 
test

>  <HBA count>  (119) 
3

>  <HBD count>  (119) 
0

>  <ExactMolWt>  (119) 
257.11831798391006

>  <NumRotatableBounds>  (119) 
7

>  <FractionCsp3>  (119) 
0.25

>  <TPSA>  (119) 
41.519999999999996

>  <LogP_WildmanCrippen>  (119) 
3.513600000000002

>  <General_Cluster>  (119) 
4

>  <Biological_Cluster>  (119) 
1

>  <Physicochemical_Cluster>  (119) 
3

>  <Structural_Cluster>  (119) 
3

$$$$
CHEMBL2177117
     RDKit          3D

 38 40  0  0  0  0  0  0  0  0999 V2000
  110.9686   64.9227   40.2200 C   0  0  0  0  0  0  0  0  0  0  0  0
  109.7061   65.9949   33.7297 C   0  0  0  0  0  0  0  0  0  0  0  0
  109.5290   65.3957   34.9767 C   0  0  0  0  0  0  0  0  0  0  0  0
  110.5702   64.1821   39.1127 C   0  0  0  0  0  0  0  0  0  0  0  0
  111.5244   66.1847   40.0418 C   0  0  0  0  0  0  0  0  0  0  0  0
  111.9096   65.0167   33.5725 C   0  0  0  0  0  0  0  0  0  0  0  0
  107.9543   69.3327   30.7560 C   0  0  0  0  0  0  0  0  0  0  0  0
  108.4889   69.5165   32.7654 C   0  0  0  0  0  0  0  0  0  0  0  0
  110.8964   65.8054   33.0275 C   0  0  0  0  0  0  0  0  0  0  0  0
  110.5422   64.6070   35.5217 C   0  0  0  0  0  0  0  0  0  0  0  0
  111.7325   64.4175   34.8196 C   0  0  0  0  0  0  0  0  0  0  0  0
  110.7475   64.7439   37.8587 C   0  0  0  0  0  0  0  0  0  0  0  0
  111.6592   66.6569   38.7462 C   0  0  0  0  0  0  0  0  0  0  0  0
  111.0848   66.4439   31.6930 C   0  0  0  0  0  0  0  0  0  0  0  0
  111.7125   67.8542   31.6930 C   0  0  0  0  0  0  0  0  0  0  0  0
  110.9294   68.9052   32.4915 C   0  0  0  0  0  0  0  0  0  0  0  0
  107.4415   69.6400   31.9837 N   0  0  0  0  0  0  0  0  0  0  0  0
  109.2532   69.0267   30.7290 N   0  0  0  0  0  0  0  0  0  0  0  0
  111.2837   65.9666   37.6461 N   0  0  0  0  0  0  0  0  0  0  0  0
  109.5709   69.1518   32.0265 N   0  0  0  0  0  0  0  0  0  0  0  0
  112.7295   63.6501   35.3420 O   0  0  0  0  0  0  0  0  0  0  0  0
  110.3568   64.0274   36.7407 O   0  0  0  0  0  0  0  0  0  0  0  0
  112.1928   67.8741   38.5601 F   0  0  0  0  0  0  0  0  0  0  0  0
  110.8446   64.5119   41.2328 H   0  0  0  0  0  0  0  0  0  0  0  0
  108.9071   66.6169   33.3000 H   0  0  0  0  0  0  0  0  0  0  0  0
  108.5903   65.5451   35.5304 H   0  0  0  0  0  0  0  0  0  0  0  0
  110.1281   63.1815   39.2287 H   0  0  0  0  0  0  0  0  0  0  0  0
  111.8469   66.7892   40.9024 H   0  0  0  0  0  0  0  0  0  0  0  0
  112.8483   64.8673   33.0188 H   0  0  0  0  0  0  0  0  0  0  0  0
  107.3358   69.3371   29.8464 H   0  0  0  0  0  0  0  0  0  0  0  0
  108.4911   69.6827   33.8528 H   0  0  0  0  0  0  0  0  0  0  0  0
  111.7350   65.7875   31.0960 H   0  0  0  0  0  0  0  0  0  0  0  0
  110.0720   66.5732   31.2837 H   0  0  0  0  0  0  0  0  0  0  0  0
  112.7223   67.7797   32.1229 H   0  0  0  0  0  0  0  0  0  0  0  0
  111.7112   68.1946   30.6470 H   0  0  0  0  0  0  0  0  0  0  0  0
  110.8752   68.5675   33.5370 H   0  0  0  0  0  0  0  0  0  0  0  0
  111.4727   69.8531   32.3636 H   0  0  0  0  0  0  0  0  0  0  0  0
  112.6122   63.2211   36.2265 H   0  0  0  0  0  0  0  0  0  0  0  0
  1  4  2  0
  1  5  1  0
  2  3  2  0
  2  9  1  0
  3 10  1  0
  4 12  1  0
  5 13  2  0
  6  9  2  0
  6 11  1  0
  7 17  1  0
  7 18  2  0
  8 17  2  0
  8 20  1  0
  9 14  1  0
 10 11  2  0
 10 22  1  0
 11 21  1  0
 12 19  2  0
 12 22  1  0
 13 19  1  0
 13 23  1  0
 14 15  1  0
 15 16  1  0
 16 20  1  0
 18 20  1  0
  1 24  1  0
  2 25  1  0
  3 26  1  0
  4 27  1  0
  5 28  1  0
  6 29  1  0
  7 30  1  0
  8 31  1  0
 14 32  1  0
 14 33  1  0
 15 34  1  0
 15 35  1  0
 16 36  1  0
 16 37  1  0
 21 38  1  0
M  END
>  <s_m_entry_id>  (120) 
22037

>  <s_m_Source_Path>  (120) 
C:\Users\vinicius\Downloads\Ligands_Ecoli

>  <s_m_Source_File>  (120) 
Ligands_Ecoli_o.sdf

>  <i_m_Source_File_Index>  (120) 
121

>  <i_f3d_flags>  (120) 
0

>  <r_lp_tautomer_probability>  (120) 
1

>  <r_epik_Ionization_Penalty>  (120) 
  0.0023

>  <r_epik_State_Penalty>  (120) 
  0.0016

>  <i_epik_Tot_Q>  (120) 
0

>  <s_m_job_name>  (120) 
ligs_ecFabI_ligprep_2

>  <class_value>  (120) 
0

>  <FRED Chemgauss4 score>  (120) 
-14.705099

>  <Name>  (120) 
CHEMBL2177117

>  <Set>  (120) 
test

>  <HBA count>  (120) 
6

>  <HBD count>  (120) 
1

>  <ExactMolWt>  (120) 
314.11790394000036

>  <NumRotatableBounds>  (120) 
7

>  <FractionCsp3>  (120) 
0.1875

>  <TPSA>  (120) 
73.06

>  <LogP_WildmanCrippen>  (120) 
2.942900000000001

>  <General_Cluster>  (120) 
1

>  <Biological_Cluster>  (120) 
2

>  <Physicochemical_Cluster>  (120) 
3

>  <Structural_Cluster>  (120) 
3

$$$$
CHEMBL583197
     RDKit          3D

 53 56  0  0  0  0  0  0  0  0999 V2000
  106.4734   68.8154   31.0796 C   0  0  0  0  0  0  0  0  0  0  0  0
  107.2936   69.5382   30.2251 C   0  0  0  0  0  0  0  0  0  0  0  0
  107.0226   68.0988   32.1462 C   0  0  0  0  0  0  0  0  0  0  0  0
  108.6764   69.5613   30.4166 C   0  0  0  0  0  0  0  0  0  0  0  0
  110.6012   66.6912   39.2432 C   0  0  0  0  0  0  0  0  0  0  0  0
  112.3895   65.4104   40.0980 C   0  0  0  0  0  0  0  0  0  0  0  0
  108.4211   68.1021   32.3672 C   0  0  0  0  0  0  0  0  0  0  0  0
  111.5962   65.7508   39.0256 C   0  0  0  0  0  0  0  0  0  0  0  0
  110.4194   67.2655   40.5119 C   0  0  0  0  0  0  0  0  0  0  0  0
  109.2080   67.4545   33.3780 C   0  0  0  0  0  0  0  0  0  0  0  0
  109.2268   68.8379   31.4928 C   0  0  0  0  0  0  0  0  0  0  0  0
  110.5535   67.7061   33.2514 C   0  0  0  0  0  0  0  0  0  0  0  0
  111.2435   66.8265   41.5617 C   0  0  0  0  0  0  0  0  0  0  0  0
  111.8026   65.1588   37.7172 C   0  0  0  0  0  0  0  0  0  0  0  0
  111.3740   65.6819   36.5437 C   0  0  0  0  0  0  0  0  0  0  0  0
  111.6210   64.9581   35.2617 C   0  0  0  0  0  0  0  0  0  0  0  0
  109.3557   68.3221   40.6590 C   0  0  0  0  0  0  0  0  0  0  0  0
  109.8511   67.7173   43.4264 C   0  0  0  0  0  0  0  0  0  0  0  0
  109.5063   69.1471   43.0510 C   0  0  0  0  0  0  0  0  0  0  0  0
  108.6311   66.6017   34.4491 C   0  0  0  0  0  0  0  0  0  0  0  0
  111.9798   65.1219   32.8285 C   0  0  0  0  0  0  0  0  0  0  0  0
  111.6873   67.2152   34.1044 C   0  0  0  0  0  0  0  0  0  0  0  0
  112.2381   65.9233   41.3386 N   0  0  0  0  0  0  0  0  0  0  0  0
  111.1125   67.2737   42.8692 N   0  0  0  0  0  0  0  0  0  0  0  0
  111.7657   65.7557   34.1230 N   0  0  0  0  0  0  0  0  0  0  0  0
  109.7178   69.4266   41.6030 N   0  0  0  0  0  4  0  0  0  0  0  0
  111.6621   63.7270   35.2523 O   0  0  0  0  0  0  0  0  0  0  0  0
  110.8923   68.7193   31.9233 S   0  0  0  0  0  0  0  0  0  0  0  0
  105.3856   68.8064   30.9166 H   0  0  0  0  0  0  0  0  0  0  0  0
  106.8501   70.0984   29.3888 H   0  0  0  0  0  0  0  0  0  0  0  0
  106.3643   67.5286   32.8182 H   0  0  0  0  0  0  0  0  0  0  0  0
  109.3253   70.1348   29.7384 H   0  0  0  0  0  0  0  0  0  0  0  0
  109.9461   66.9913   38.4121 H   0  0  0  0  0  0  0  0  0  0  0  0
  113.1938   64.6779   39.9352 H   0  0  0  0  0  0  0  0  0  0  0  0
  112.3523   64.2070   37.6748 H   0  0  0  0  0  0  0  0  0  0  0  0
  110.8415   66.6444   36.5353 H   0  0  0  0  0  0  0  0  0  0  0  0
  109.1665   68.7621   39.6687 H   0  0  0  0  0  0  0  0  0  0  0  0
  108.4694   67.8238   41.0787 H   0  0  0  0  0  0  0  0  0  0  0  0
  109.9082   67.6469   44.5227 H   0  0  0  0  0  0  0  0  0  0  0  0
  109.0635   67.0699   43.0135 H   0  0  0  0  0  0  0  0  0  0  0  0
  108.4493   69.3300   43.2943 H   0  0  0  0  0  0  0  0  0  0  0  0
  110.1744   69.8109   43.6193 H   0  0  0  0  0  0  0  0  0  0  0  0
  108.9077   67.0105   35.4321 H   0  0  0  0  0  0  0  0  0  0  0  0
  107.5353   66.5848   34.3541 H   0  0  0  0  0  0  0  0  0  0  0  0
  109.0232   65.5783   34.3541 H   0  0  0  0  0  0  0  0  0  0  0  0
  112.3285   64.0895   32.9789 H   0  0  0  0  0  0  0  0  0  0  0  0
  111.0353   65.1114   32.2647 H   0  0  0  0  0  0  0  0  0  0  0  0
  112.7372   65.6863   32.2647 H   0  0  0  0  0  0  0  0  0  0  0  0
  112.6309   67.6166   33.7064 H   0  0  0  0  0  0  0  0  0  0  0  0
  111.5118   67.5594   35.1343 H   0  0  0  0  0  0  0  0  0  0  0  0
  111.9491   67.2909   43.4697 H   0  0  0  0  0  0  0  0  0  0  0  0
  110.7156   69.6426   41.4667 H   0  0  0  0  0  0  0  0  0  0  0  0
  109.0819   70.2044   41.3757 H   0  0  0  0  0  0  0  0  0  0  0  0
  1  2  2  0
  1  3  1  0
  2  4  1  0
  3  7  2  0
  4 11  2  0
  5  8  2  0
  5  9  1  0
  6  8  1  0
  6 23  2  0
  7 10  1  0
  7 11  1  0
  8 14  1  0
  9 13  2  0
  9 17  1  0
 10 12  2  0
 10 20  1  0
 11 28  1  0
 12 22  1  0
 12 28  1  0
 13 23  1  0
 13 24  1  0
 14 15  2  0
 15 16  1  0
 16 25  1  0
 16 27  2  0
 17 26  1  0
 18 19  1  0
 18 24  1  0
 19 26  1  0
 21 25  1  0
 22 25  1  0
  1 29  1  0
  2 30  1  0
  3 31  1  0
  4 32  1  0
  5 33  1  0
  6 34  1  0
 14 35  1  0
 15 36  1  0
 17 37  1  0
 17 38  1  0
 18 39  1  0
 18 40  1  0
 19 41  1  0
 19 42  1  0
 20 43  1  0
 20 44  1  0
 20 45  1  0
 21 46  1  0
 21 47  1  0
 21 48  1  0
 22 49  1  0
 22 50  1  0
 24 51  1  0
 26 52  1  0
 26 53  1  0
M  CHG  1  26   1
M  END
>  <s_m_entry_id>  (121) 
21969

>  <s_m_Source_Path>  (121) 
C:\Users\vinicius\Downloads\Ligands_Ecoli

>  <s_m_Source_File>  (121) 
Ligands_Ecoli_o.sdf

>  <i_m_Source_File_Index>  (121) 
87

>  <i_f3d_flags>  (121) 
0

>  <r_epik_Ionization_Penalty>  (121) 
  0.2144

>  <r_epik_State_Penalty>  (121) 
  0.2204

>  <i_epik_Tot_Q>  (121) 
1

>  <s_m_job_name>  (121) 
ligs_ecFabI_ligprep_2

>  <class_value>  (121) 
1

>  <FRED Chemgauss4 score>  (121) 
-14.738091

>  <Name>  (121) 
CHEMBL583197

>  <Set>  (121) 
test

>  <HBA count>  (121) 
4

>  <HBD count>  (121) 
2

>  <ExactMolWt>  (121) 
393.1743588400908

>  <NumRotatableBounds>  (121) 
6

>  <FractionCsp3>  (121) 
0.2727272727272727

>  <TPSA>  (121) 
61.84

>  <LogP_WildmanCrippen>  (121) 
2.7654200000000007

>  <General_Cluster>  (121) 
1

>  <Biological_Cluster>  (121) 
1

>  <Physicochemical_Cluster>  (121) 
3

>  <Structural_Cluster>  (121) 
7

$$$$
CHEMBL65913
     RDKit          3D

 34 36  0  0  0  0  0  0  0  0999 V2000
  111.9967   65.7981   37.0932 C   0  0  0  0  0  0  0  0  0  0  0  0
  110.8301   64.0809   38.3290 C   0  0  0  0  0  0  0  0  0  0  0  0
  112.2033   66.5088   38.2755 C   0  0  0  0  0  0  0  0  0  0  0  0
  111.0367   64.7916   39.5114 C   0  0  0  0  0  0  0  0  0  0  0  0
  110.1732   68.6731   32.3761 C   0  0  0  0  0  0  0  0  0  0  0  0
  110.0620   65.7340   34.5587 C   0  0  0  0  0  0  0  0  0  0  0  0
  109.2641   69.5616   31.8454 C   0  0  0  0  0  0  0  0  0  0  0  0
  108.2104   67.4330   32.4846 C   0  0  0  0  0  0  0  0  0  0  0  0
  111.7412   64.6527   33.6040 C   0  0  0  0  0  0  0  0  0  0  0  0
  109.5629   67.4400   32.7463 C   0  0  0  0  0  0  0  0  0  0  0  0
  111.3101   64.5842   37.1199 C   0  0  0  0  0  0  0  0  0  0  0  0
  111.7233   66.0055   39.4846 C   0  0  0  0  0  0  0  0  0  0  0  0
  110.2928   66.3057   33.3394 C   0  0  0  0  0  0  0  0  0  0  0  0
  111.4088   66.1265   41.8388 C   0  0  0  0  0  0  0  0  0  0  0  0
  111.0897   63.8240   35.8560 C   0  0  0  0  0  0  0  0  0  0  0  0
  110.9721   64.7138   34.6959 N   0  0  0  0  0  0  0  0  0  0  0  0
  111.3371   65.6171   32.7709 N   0  0  0  0  0  4  0  0  0  0  0  0
  111.9261   66.6985   40.6384 O   0  0  0  0  0  0  0  0  0  0  0  0
  107.6818   68.9087   31.7951 S   0  0  0  0  0  0  0  0  0  0  0  0
  112.3753   66.1949   36.1397 H   0  0  0  0  0  0  0  0  0  0  0  0
  110.2887   63.1236   38.3501 H   0  0  0  0  0  0  0  0  0  0  0  0
  112.7447   67.4661   38.2544 H   0  0  0  0  0  0  0  0  0  0  0  0
  110.6582   64.3948   40.4649 H   0  0  0  0  0  0  0  0  0  0  0  0
  111.2445   68.8901   32.4996 H   0  0  0  0  0  0  0  0  0  0  0  0
  109.2958   66.0327   35.2892 H   0  0  0  0  0  0  0  0  0  0  0  0
  109.5239   70.5715   31.4952 H   0  0  0  0  0  0  0  0  0  0  0  0
  107.5481   66.5800   32.6939 H   0  0  0  0  0  0  0  0  0  0  0  0
  112.5582   63.9385   33.4238 H   0  0  0  0  0  0  0  0  0  0  0  0
  111.8611   66.6266   42.7079 H   0  0  0  0  0  0  0  0  0  0  0  0
  110.3171   66.2584   41.8670 H   0  0  0  0  0  0  0  0  0  0  0  0
  111.6494   65.0535   41.8670 H   0  0  0  0  0  0  0  0  0  0  0  0
  111.9393   63.1435   35.6976 H   0  0  0  0  0  0  0  0  0  0  0  0
  110.1472   63.2654   35.9541 H   0  0  0  0  0  0  0  0  0  0  0  0
  111.7455   65.8135   31.8459 H   0  0  0  0  0  0  0  0  0  0  0  0
  1  3  2  0
  1 11  1  0
  2  4  1  0
  2 11  2  0
  3 12  1  0
  4 12  2  0
  5  7  2  0
  5 10  1  0
  6 13  2  0
  6 16  1  0
  7 19  1  0
  8 10  2  0
  8 19  1  0
  9 16  1  0
  9 17  2  0
 10 13  1  0
 11 15  1  0
 12 18  1  0
 13 17  1  0
 14 18  1  0
 15 16  1  0
  1 20  1  0
  2 21  1  0
  3 22  1  0
  4 23  1  0
  5 24  1  0
  6 25  1  0
  7 26  1  0
  8 27  1  0
  9 28  1  0
 14 29  1  0
 14 30  1  0
 14 31  1  0
 15 32  1  0
 15 33  1  0
 17 34  1  0
M  CHG  1  17   1
M  END
>  <s_m_entry_id>  (122) 
21877

>  <s_m_Source_Path>  (122) 
C:\Users\vinicius\Downloads\Ligands_Ecoli

>  <s_m_Source_File>  (122) 
Ligands_Ecoli_o.sdf

>  <i_m_Source_File_Index>  (122) 
42

>  <i_f3d_flags>  (122) 
0

>  <r_lp_tautomer_probability>  (122) 
1

>  <r_epik_Ionization_Penalty>  (122) 
  0.8997

>  <r_epik_State_Penalty>  (122) 
  0.9395

>  <i_epik_Tot_Q>  (122) 
1

>  <s_m_job_name>  (122) 
ligs_ecFabI_ligprep_2

>  <class_value>  (122) 
0

>  <FRED Chemgauss4 score>  (122) 
-15.283081

>  <Name>  (122) 
CHEMBL65913

>  <Set>  (122) 
test

>  <HBA count>  (122) 
3

>  <HBD count>  (122) 
0

>  <ExactMolWt>  (122) 
271.0899605200904

>  <NumRotatableBounds>  (122) 
5

>  <FractionCsp3>  (122) 
0.13333333333333333

>  <TPSA>  (122) 
28.3

>  <LogP_WildmanCrippen>  (122) 
3.087600000000001

>  <General_Cluster>  (122) 
2

>  <Biological_Cluster>  (122) 
2

>  <Physicochemical_Cluster>  (122) 
6

>  <Structural_Cluster>  (122) 
1

$$$$
CHEMBL566043
     RDKit          3D

 67 71  0  0  0  0  0  0  0  0999 V2000
  101.7158   64.0562   43.5418 C   0  0  0  0  0  0  0  0  0  0  0  0
  101.7192   65.2402   42.8182 C   0  0  0  0  0  0  0  0  0  0  0  0
  102.9119   63.3781   43.7906 C   0  0  0  0  0  0  0  0  0  0  0  0
  102.9139   65.7715   42.3288 C   0  0  0  0  0  0  0  0  0  0  0  0
  110.3732   65.5263   38.2838 C   0  0  0  0  0  0  0  0  0  0  0  0
  112.3697   64.4241   38.9397 C   0  0  0  0  0  0  0  0  0  0  0  0
  104.1403   63.8908   43.3079 C   0  0  0  0  0  0  0  0  0  0  0  0
  111.2218   65.1057   39.3003 C   0  0  0  0  0  0  0  0  0  0  0  0
  110.6917   65.2569   36.9508 C   0  0  0  0  0  0  0  0  0  0  0  0
  105.4772   63.3838   43.4329 C   0  0  0  0  0  0  0  0  0  0  0  0
  104.1181   65.0854   42.5815 C   0  0  0  0  0  0  0  0  0  0  0  0
  106.4118   64.1815   42.8167 C   0  0  0  0  0  0  0  0  0  0  0  0
  111.8659   64.5667   36.6921 C   0  0  0  0  0  0  0  0  0  0  0  0
  111.4525   64.6448   34.2525 C   0  0  0  0  0  0  0  0  0  0  0  0
  110.9131   65.3721   40.6930 C   0  0  0  0  0  0  0  0  0  0  0  0
  109.6853   65.6704   41.1803 C   0  0  0  0  0  0  0  0  0  0  0  0
  109.5014   65.9573   42.6336 C   0  0  0  0  0  0  0  0  0  0  0  0
  109.7976   65.6984   35.8415 C   0  0  0  0  0  0  0  0  0  0  0  0
  109.4724   68.6880   31.0717 C   0  0  0  0  0  0  0  0  0  0  0  0
  107.5450   67.9931   32.3370 C   0  0  0  0  0  0  0  0  0  0  0  0
  108.5405   69.1186   29.9426 C   0  0  0  0  0  0  0  0  0  0  0  0
  106.6587   68.4390   31.1776 C   0  0  0  0  0  0  0  0  0  0  0  0
  105.8173   62.1290   44.1522 C   0  0  0  0  0  0  0  0  0  0  0  0
  108.3740   65.3434   44.7380 C   0  0  0  0  0  0  0  0  0  0  0  0
  107.8986   63.9925   42.7269 C   0  0  0  0  0  0  0  0  0  0  0  0
  109.4140   65.7566   33.3965 C   0  0  0  0  0  0  0  0  0  0  0  0
  109.7334   67.1651   32.9246 C   0  0  0  0  0  0  0  0  0  0  0  0
  112.7117   64.1449   37.6625 N   0  0  0  0  0  0  0  0  0  0  0  0
  112.2020   64.2875   35.3605 N   0  0  0  0  0  0  0  0  0  0  0  0
  110.2666   65.3407   34.5025 N   0  0  0  0  0  0  0  0  0  0  0  0
  108.8625   67.5862   31.8292 N   0  0  0  0  0  0  0  0  0  0  0  0
  108.6290   65.1099   43.3224 N   0  0  0  0  0  0  0  0  0  0  0  0
  111.8432   64.3464   33.1194 O   0  0  0  0  0  0  0  0  0  0  0  0
  110.0862   66.9119   43.1475 O   0  0  0  0  0  0  0  0  0  0  0  0
  107.2729   69.5151   30.4675 O   0  0  0  0  0  0  0  0  0  0  0  0
  105.7028   65.5461   42.0815 S   0  0  0  0  0  0  0  0  0  0  0  0
  100.7669   63.6495   43.9214 H   0  0  0  0  0  0  0  0  0  0  0  0
  100.7714   65.7652   42.6283 H   0  0  0  0  0  0  0  0  0  0  0  0
  102.8991   62.4401   44.3651 H   0  0  0  0  0  0  0  0  0  0  0  0
  102.9149   66.7102   41.7554 H   0  0  0  0  0  0  0  0  0  0  0  0
  109.4500   66.0718   38.5289 H   0  0  0  0  0  0  0  0  0  0  0  0
  113.0451   64.0890   39.7407 H   0  0  0  0  0  0  0  0  0  0  0  0
  111.7446   65.3281   41.4118 H   0  0  0  0  0  0  0  0  0  0  0  0
  108.8197   65.7014   40.5022 H   0  0  0  0  0  0  0  0  0  0  0  0
  108.8098   65.2388   35.9933 H   0  0  0  0  0  0  0  0  0  0  0  0
  109.7724   66.7974   35.8799 H   0  0  0  0  0  0  0  0  0  0  0  0
  110.4300   68.3526   30.6467 H   0  0  0  0  0  0  0  0  0  0  0  0
  109.6436   69.5403   31.7456 H   0  0  0  0  0  0  0  0  0  0  0  0
  107.6678   68.8266   33.0442 H   0  0  0  0  0  0  0  0  0  0  0  0
  107.0734   67.1403   32.8472 H   0  0  0  0  0  0  0  0  0  0  0  0
  108.9908   69.9655   29.4040 H   0  0  0  0  0  0  0  0  0  0  0  0
  108.3937   68.2703   29.2578 H   0  0  0  0  0  0  0  0  0  0  0  0
  106.5057   67.5926   30.4918 H   0  0  0  0  0  0  0  0  0  0  0  0
  105.6925   68.7805   31.5775 H   0  0  0  0  0  0  0  0  0  0  0  0
  105.7699   62.3039   45.2372 H   0  0  0  0  0  0  0  0  0  0  0  0
  105.1000   61.3421   43.8760 H   0  0  0  0  0  0  0  0  0  0  0  0
  106.8338   61.8120   43.8760 H   0  0  0  0  0  0  0  0  0  0  0  0
  109.0529   64.7218   45.3403 H   0  0  0  0  0  0  0  0  0  0  0  0
  108.5449   66.4047   44.9712 H   0  0  0  0  0  0  0  0  0  0  0  0
  107.3318   65.0799   44.9712 H   0  0  0  0  0  0  0  0  0  0  0  0
  108.1717   63.0674   43.2557 H   0  0  0  0  0  0  0  0  0  0  0  0
  108.1707   63.9371   41.6625 H   0  0  0  0  0  0  0  0  0  0  0  0
  108.3649   65.7225   33.7255 H   0  0  0  0  0  0  0  0  0  0  0  0
  109.5921   65.0700   32.5558 H   0  0  0  0  0  0  0  0  0  0  0  0
  109.6048   67.8598   33.7677 H   0  0  0  0  0  0  0  0  0  0  0  0
  110.7701   67.1733   32.5568 H   0  0  0  0  0  0  0  0  0  0  0  0
  113.0789   63.7741   35.1922 H   0  0  0  0  0  0  0  0  0  0  0  0
  1  2  2  0
  1  3  1  0
  2  4  1  0
  3  7  2  0
  4 11  2  0
  5  8  2  0
  5  9  1  0
  6  8  1  0
  6 28  2  0
  7 10  1  0
  7 11  1  0
  8 15  1  0
  9 13  2  0
  9 18  1  0
 10 12  2  0
 10 23  1  0
 11 36  1  0
 12 25  1  0
 12 36  1  0
 13 28  1  0
 13 29  1  0
 14 29  1  0
 14 30  1  0
 14 33  2  0
 15 16  2  0
 16 17  1  0
 17 32  1  0
 17 34  2  0
 18 30  1  0
 19 21  1  0
 19 31  1  0
 20 22  1  0
 20 31  1  0
 21 35  1  0
 22 35  1  0
 24 32  1  0
 25 32  1  0
 26 27  1  0
 26 30  1  0
 27 31  1  0
  1 37  1  0
  2 38  1  0
  3 39  1  0
  4 40  1  0
  5 41  1  0
  6 42  1  0
 15 43  1  0
 16 44  1  0
 18 45  1  0
 18 46  1  0
 19 47  1  0
 19 48  1  0
 20 49  1  0
 20 50  1  0
 21 51  1  0
 21 52  1  0
 22 53  1  0
 22 54  1  0
 23 55  1  0
 23 56  1  0
 23 57  1  0
 24 58  1  0
 24 59  1  0
 24 60  1  0
 25 61  1  0
 25 62  1  0
 26 63  1  0
 26 64  1  0
 27 65  1  0
 27 66  1  0
 29 67  1  0
M  END
>  <s_m_entry_id>  (123) 
21982

>  <s_m_Source_Path>  (123) 
C:\Users\vinicius\Downloads\Ligands_Ecoli

>  <s_m_Source_File>  (123) 
Ligands_Ecoli_o.sdf

>  <i_m_Source_File_Index>  (123) 
93

>  <i_f3d_flags>  (123) 
0

>  <r_epik_Ionization_Penalty>  (123) 
  0.1018

>  <r_epik_State_Penalty>  (123) 
  0.0917

>  <i_epik_Tot_Q>  (123) 
0

>  <s_m_job_name>  (123) 
ligs_ecFabI_ligprep_2

>  <class_value>  (123) 
1

>  <FRED Chemgauss4 score>  (123) 
-14.381294

>  <Name>  (123) 
CHEMBL566043

>  <Set>  (123) 
test

>  <HBA count>  (123) 
6

>  <HBD count>  (123) 
1

>  <ExactMolWt>  (123) 
505.21476085200095

>  <NumRotatableBounds>  (123) 
9

>  <FractionCsp3>  (123) 
0.37037037037037035

>  <TPSA>  (123) 
78.01

>  <LogP_WildmanCrippen>  (123) 
3.9562200000000036

>  <General_Cluster>  (123) 
4

>  <Biological_Cluster>  (123) 
1

>  <Physicochemical_Cluster>  (123) 
4

>  <Structural_Cluster>  (123) 
5

$$$$
CHEMBL2178302
     RDKit          3D

 49 51  0  0  1  0  0  0  0  0999 V2000
  108.1375   64.8342   41.8031 C   0  0  0  0  0  0  0  0  0  0  0  0
  111.1918   66.5619   37.3187 C   0  0  0  0  0  0  0  0  0  0  0  0
  109.2730   64.5355   41.0502 C   0  0  0  0  0  0  0  0  0  0  0  0
  111.2657   66.3618   38.6971 C   0  0  0  0  0  0  0  0  0  0  0  0
  109.4015   66.4622   43.0637 C   0  0  0  0  0  0  0  0  0  0  0  0
  111.6298   64.2141   36.9543 C   0  0  0  0  0  0  0  0  0  0  0  0
  108.2017   65.7975   42.8099 C   0  0  0  0  0  0  0  0  0  0  0  0
  111.3738   65.4881   36.4472 C   0  0  0  0  0  0  0  0  0  0  0  0
  110.4728   65.2002   41.3040 C   0  0  0  0  0  0  0  0  0  0  0  0
  111.5217   65.0878   39.2041 C   0  0  0  0  0  0  0  0  0  0  0  0
  110.5371   66.1635   42.3108 C   0  0  0  0  0  0  0  0  0  0  0  0
  111.7038   64.0139   38.3327 C   0  0  0  0  0  0  0  0  0  0  0  0
  111.4538   64.7397   34.0363 C   0  0  0  0  0  0  0  0  0  0  0  0
  108.8812   68.7270   31.3184 C   0  0  0  0  0  0  0  0  0  0  0  0
  111.1495   66.9950   34.4483 C   0  0  0  0  0  0  0  0  0  0  0  0
  110.8255   66.6837   33.0030 C   0  0  2  0  0  0  0  0  0  0  0  0
  108.3788   70.1312   31.3810 C   0  0  0  0  0  0  0  0  0  0  0  0
  106.1595   67.2408   42.9915 C   0  0  0  0  0  0  0  0  0  0  0  0
  106.9870   66.1188   43.6133 C   0  0  0  0  0  0  0  0  0  0  0  0
  109.3331   66.7119   32.7032 C   0  0  0  0  0  0  0  0  0  0  0  0
  111.2984   65.6924   35.0399 N   0  0  0  0  0  0  0  0  0  0  0  0
  108.8936   68.0587   32.5400 N   0  0  0  0  0  0  0  0  0  0  0  0
  111.7045   63.5465   34.1296 O   0  0  0  0  0  0  0  0  0  0  0  0
  109.2376   68.2602   30.2429 O   0  0  0  0  0  0  0  0  0  0  0  0
  111.3118   65.3482   32.8093 O   0  0  0  0  0  0  0  0  0  0  0  0
  111.7034   66.8186   42.5685 O   0  0  0  0  0  0  0  0  0  0  0  0
  111.5930   64.8942   40.5493 O   0  0  0  0  0  0  0  0  0  0  0  0
  111.9491   62.7876   38.8139 F   0  0  0  0  0  0  0  0  0  0  0  0
  107.1913   64.3101   41.6029 H   0  0  0  0  0  0  0  0  0  0  0  0
  110.9900   67.5666   36.9189 H   0  0  0  0  0  0  0  0  0  0  0  0
  109.2224   63.7758   40.2563 H   0  0  0  0  0  0  0  0  0  0  0  0
  111.1221   67.2086   39.3843 H   0  0  0  0  0  0  0  0  0  0  0  0
  109.4521   67.2219   43.8576 H   0  0  0  0  0  0  0  0  0  0  0  0
  111.7733   63.3673   36.2671 H   0  0  0  0  0  0  0  0  0  0  0  0
  112.0819   67.5732   34.5278 H   0  0  0  0  0  0  0  0  0  0  0  0
  110.3794   67.6069   34.9408 H   0  0  0  0  0  0  0  0  0  0  0  0
  111.2797   67.4353   32.3406 H   0  0  0  0  0  0  0  0  0  0  0  0
  108.2700   70.4352   32.4326 H   0  0  0  0  0  0  0  0  0  0  0  0
  109.0937   70.7992   30.8783 H   0  0  0  0  0  0  0  0  0  0  0  0
  107.4024   70.1940   30.8783 H   0  0  0  0  0  0  0  0  0  0  0  0
  105.7100   67.8503   43.7893 H   0  0  0  0  0  0  0  0  0  0  0  0
  106.8089   67.8734   42.3686 H   0  0  0  0  0  0  0  0  0  0  0  0
  105.3633   66.8072   42.3686 H   0  0  0  0  0  0  0  0  0  0  0  0
  106.3618   65.2166   43.6851 H   0  0  0  0  0  0  0  0  0  0  0  0
  107.3203   66.4574   44.6054 H   0  0  0  0  0  0  0  0  0  0  0  0
  109.1367   66.1500   31.7781 H   0  0  0  0  0  0  0  0  0  0  0  0
  108.7878   66.2533   33.5412 H   0  0  0  0  0  0  0  0  0  0  0  0
  108.5663   68.5666   33.3742 H   0  0  0  0  0  0  0  0  0  0  0  0
  112.5142   66.6128   42.0390 H   0  0  0  0  0  0  0  0  0  0  0  0
  1  3  2  0
  1  7  1  0
  2  4  2  0
  2  8  1  0
  3  9  1  0
  4 10  1  0
  5  7  2  0
  5 11  1  0
  6  8  2  0
  6 12  1  0
  7 19  1  0
  8 21  1  0
  9 11  2  0
  9 27  1  0
 10 12  2  0
 10 27  1  0
 11 26  1  0
 12 28  1  0
 13 21  1  0
 13 23  2  0
 13 25  1  0
 14 17  1  0
 14 22  1  0
 14 24  2  0
 15 16  1  0
 15 21  1  0
 16 20  1  0
 16 25  1  0
 18 19  1  0
 20 22  1  0
  1 29  1  0
  2 30  1  0
  3 31  1  0
  4 32  1  0
  5 33  1  0
  6 34  1  0
 15 35  1  0
 15 36  1  0
 16 37  1  6
 17 38  1  0
 17 39  1  0
 17 40  1  0
 18 41  1  0
 18 42  1  0
 18 43  1  0
 19 44  1  0
 19 45  1  0
 20 46  1  0
 20 47  1  0
 22 48  1  0
 26 49  1  0
M  END
>  <s_m_entry_id>  (124) 
21800

>  <s_m_Source_Path>  (124) 
C:\Users\vinicius\Downloads\Ligands_Ecoli

>  <s_m_Source_File>  (124) 
Ligands_Ecoli_o_stereoinespecific.sdf

>  <i_m_Source_File_Index>  (124) 
2

>  <i_f3d_flags>  (124) 
0

>  <r_lp_tautomer_probability>  (124) 
1

>  <r_epik_Ionization_Penalty>  (124) 
  0.0687

>  <r_epik_State_Penalty>  (124) 
  0.0602

>  <i_epik_Tot_Q>  (124) 
0

>  <s_m_job_name>  (124) 
ligs_ecFabI_ligprep_2

>  <class_value>  (124) 
0

>  <Name>  (124) 
CHEMBL2178302

>  <FRED Chemgauss4 score>  (124) 
-15.742282

>  <Set>  (124) 
test

>  <HBA count>  (124) 
5

>  <HBD count>  (124) 
2

>  <ExactMolWt>  (124) 
388.14344999200046

>  <NumRotatableBounds>  (124) 
9

>  <FractionCsp3>  (124) 
0.3

>  <TPSA>  (124) 
88.10000000000001

>  <LogP_WildmanCrippen>  (124) 
3.347300000000002

>  <General_Cluster>  (124) 
1

>  <Biological_Cluster>  (124) 
2

>  <Physicochemical_Cluster>  (124) 
3

>  <Structural_Cluster>  (124) 
6

$$$$
CHEMBL237636
     RDKit          3D

 40 43  0  0  0  0  0  0  0  0999 V2000
  110.3611   65.5621   32.5860 C   0  0  0  0  0  0  0  0  0  0  0  0
  109.1443   66.0729   33.0439 C   0  0  0  0  0  0  0  0  0  0  0  0
  106.8232   65.3805   44.6161 C   0  0  0  0  0  0  0  0  0  0  0  0
  111.3980   65.2601   33.4776 C   0  0  0  0  0  0  0  0  0  0  0  0
  108.9189   66.3000   34.4056 C   0  0  0  0  0  0  0  0  0  0  0  0
  107.4594   66.4992   44.0896 C   0  0  0  0  0  0  0  0  0  0  0  0
  107.0159   64.1157   44.0546 C   0  0  0  0  0  0  0  0  0  0  0  0
  111.1890   65.4823   34.8492 C   0  0  0  0  0  0  0  0  0  0  0  0
  108.5193   65.1136   42.3979 C   0  0  0  0  0  0  0  0  0  0  0  0
  109.9657   65.9921   35.2752 C   0  0  0  0  0  0  0  0  0  0  0  0
  108.3070   66.3800   42.9845 C   0  0  0  0  0  0  0  0  0  0  0  0
  107.8689   64.0033   42.9448 C   0  0  0  0  0  0  0  0  0  0  0  0
  111.3412   65.6449   36.9729 C   0  0  0  0  0  0  0  0  0  0  0  0
  109.2883   63.5600   41.0333 C   0  0  0  0  0  0  0  0  0  0  0  0
  110.8322   63.4074   39.0399 C   0  0  0  0  0  0  0  0  0  0  0  0
  108.2207   68.2182   41.4781 C   0  0  0  0  0  0  0  0  0  0  0  0
  111.7930   65.6178   38.3765 C   0  0  0  0  0  0  0  0  0  0  0  0
  112.0304   65.2728   35.9176 N   0  0  0  0  0  0  0  0  0  0  0  0
  109.3287   64.8437   41.3040 N   0  0  0  0  0  0  0  0  0  0  0  0
  110.0912   66.0857   36.6376 N   0  0  0  0  0  0  0  0  0  0  0  0
  109.9682   62.8737   40.0003 N   0  0  0  0  0  0  0  0  0  0  0  0
  110.9617   64.7867   39.2210 N   0  0  0  0  0  0  0  0  0  0  0  0
  111.4116   62.7880   38.1509 O   0  0  0  0  0  0  0  0  0  0  0  0
  108.9199   67.4998   42.4877 O   0  0  0  0  0  0  0  0  0  0  0  0
  108.3008   62.5973   42.0452 S   0  0  0  0  0  0  0  0  0  0  0  0
  110.5071   65.3945   31.5087 H   0  0  0  0  0  0  0  0  0  0  0  0
  108.3482   66.3009   32.3199 H   0  0  0  0  0  0  0  0  0  0  0  0
  106.1595   65.4927   45.4861 H   0  0  0  0  0  0  0  0  0  0  0  0
  112.3545   64.8580   33.1124 H   0  0  0  0  0  0  0  0  0  0  0  0
  107.9630   66.7017   34.7729 H   0  0  0  0  0  0  0  0  0  0  0  0
  107.2943   67.4861   44.5465 H   0  0  0  0  0  0  0  0  0  0  0  0
  106.5124   63.2308   44.4711 H   0  0  0  0  0  0  0  0  0  0  0  0
  107.5272   68.9307   41.9487 H   0  0  0  0  0  0  0  0  0  0  0  0
  108.9408   68.7661   40.8525 H   0  0  0  0  0  0  0  0  0  0  0  0
  107.6535   67.5132   40.8525 H   0  0  0  0  0  0  0  0  0  0  0  0
  112.8219   65.2299   38.4064 H   0  0  0  0  0  0  0  0  0  0  0  0
  111.7311   66.6460   38.7626 H   0  0  0  0  0  0  0  0  0  0  0  0
  109.3722   66.4271   37.2914 H   0  0  0  0  0  0  0  0  0  0  0  0
  109.8072   61.8576   39.9496 H   0  0  0  0  0  0  0  0  0  0  0  0
  110.4419   65.2324   39.9905 H   0  0  0  0  0  0  0  0  0  0  0  0
  1  2  2  0
  1  4  1  0
  2  5  1  0
  3  6  2  0
  3  7  1  0
  4  8  2  0
  5 10  2  0
  6 11  1  0
  7 12  2  0
  8 10  1  0
  8 18  1  0
  9 11  2  0
  9 12  1  0
  9 19  1  0
 10 20  1  0
 11 24  1  0
 12 25  1  0
 13 17  1  0
 13 18  2  0
 13 20  1  0
 14 19  2  0
 14 21  1  0
 14 25  1  0
 15 21  1  0
 15 22  1  0
 15 23  2  0
 16 24  1  0
 17 22  1  0
  1 26  1  0
  2 27  1  0
  3 28  1  0
  4 29  1  0
  5 30  1  0
  6 31  1  0
  7 32  1  0
 16 33  1  0
 16 34  1  0
 16 35  1  0
 17 36  1  0
 17 37  1  0
 20 38  1  0
 21 39  1  0
 22 40  1  0
M  END
>  <s_m_entry_id>  (125) 
21924

>  <s_m_Source_Path>  (125) 
C:\Users\vinicius\Downloads\Ligands_Ecoli

>  <s_m_Source_File>  (125) 
Ligands_Ecoli_o.sdf

>  <i_m_Source_File_Index>  (125) 
65

>  <i_f3d_flags>  (125) 
0

>  <r_epik_Ionization_Penalty>  (125) 
  0.0146

>  <r_epik_State_Penalty>  (125) 
  0.0107

>  <i_epik_Tot_Q>  (125) 
0

>  <s_m_job_name>  (125) 
ligs_ecFabI_ligprep_2

>  <class_value>  (125) 
0

>  <FRED Chemgauss4 score>  (125) 
-13.685368

>  <Name>  (125) 
CHEMBL237636

>  <Set>  (125) 
test

>  <HBA count>  (125) 
5

>  <HBD count>  (125) 
3

>  <ExactMolWt>  (125) 
353.09464572000036

>  <NumRotatableBounds>  (125) 
5

>  <FractionCsp3>  (125) 
0.11764705882352941

>  <TPSA>  (125) 
91.92999999999999

>  <LogP_WildmanCrippen>  (125) 
3.5029000000000003

>  <General_Cluster>  (125) 
3

>  <Biological_Cluster>  (125) 
2

>  <Physicochemical_Cluster>  (125) 
9

>  <Structural_Cluster>  (125) 
4

$$$$
CHEMBL2178298
     RDKit          3D

 40 41  0  0  0  0  0  0  0  0999 V2000
  112.2258   66.6990   38.6542 C   0  0  0  0  0  0  0  0  0  0  0  0
  111.1639   66.3185   32.7938 C   0  0  0  0  0  0  0  0  0  0  0  0
  112.2742   66.1753   37.3624 C   0  0  0  0  0  0  0  0  0  0  0  0
  111.8740   65.6290   33.7766 C   0  0  0  0  0  0  0  0  0  0  0  0
  111.2809   64.6263   39.4592 C   0  0  0  0  0  0  0  0  0  0  0  0
  109.1043   65.8916   33.9825 C   0  0  0  0  0  0  0  0  0  0  0  0
  111.7292   65.9245   39.7027 C   0  0  0  0  0  0  0  0  0  0  0  0
  109.7790   66.4498   32.8968 C   0  0  0  0  0  0  0  0  0  0  0  0
  111.3293   64.1025   38.1673 C   0  0  0  0  0  0  0  0  0  0  0  0
  111.8260   64.8771   37.1189 C   0  0  0  0  0  0  0  0  0  0  0  0
  111.1994   65.0708   34.8623 C   0  0  0  0  0  0  0  0  0  0  0  0
  109.8145   65.2021   34.9653 C   0  0  0  0  0  0  0  0  0  0  0  0
  110.3586   67.1989   41.3712 C   0  0  0  0  0  0  0  0  0  0  0  0
  108.3881   69.9242   31.1071 C   0  0  0  0  0  0  0  0  0  0  0  0
  111.6771   66.4854   41.0837 C   0  0  0  0  0  0  0  0  0  0  0  0
  107.4152   68.7539   31.0830 C   0  0  0  0  0  0  0  0  0  0  0  0
  107.7568   67.6827   32.1118 C   0  0  0  0  0  0  0  0  0  0  0  0
  109.0715   67.1370   31.9177 N   0  0  0  0  0  0  0  0  0  0  0  0
  110.9127   62.9067   37.9613 O   0  0  0  0  0  1  0  0  0  0  0  0
  111.8938   64.3990   35.8210 O   0  0  0  0  0  0  0  0  0  0  0  0
  109.1608   64.6687   36.0066 F   0  0  0  0  0  0  0  0  0  0  0  0
  112.5793   67.7228   38.8462 H   0  0  0  0  0  0  0  0  0  0  0  0
  111.6960   66.7587   31.9376 H   0  0  0  0  0  0  0  0  0  0  0  0
  112.6658   66.7861   36.5356 H   0  0  0  0  0  0  0  0  0  0  0  0
  112.9661   65.5255   33.6954 H   0  0  0  0  0  0  0  0  0  0  0  0
  110.8892   64.0156   40.2860 H   0  0  0  0  0  0  0  0  0  0  0  0
  108.0122   65.9951   34.0637 H   0  0  0  0  0  0  0  0  0  0  0  0
  110.2137   67.2773   42.4588 H   0  0  0  0  0  0  0  0  0  0  0  0
  110.3835   68.2067   40.9310 H   0  0  0  0  0  0  0  0  0  0  0  0
  109.5285   66.6269   40.9310 H   0  0  0  0  0  0  0  0  0  0  0  0
  108.6120   70.1935   32.1499 H   0  0  0  0  0  0  0  0  0  0  0  0
  109.3184   69.6383   30.5944 H   0  0  0  0  0  0  0  0  0  0  0  0
  107.9371   70.7866   30.5944 H   0  0  0  0  0  0  0  0  0  0  0  0
  111.7984   65.6630   41.8041 H   0  0  0  0  0  0  0  0  0  0  0  0
  112.4864   67.2246   41.1768 H   0  0  0  0  0  0  0  0  0  0  0  0
  106.4039   69.1328   31.2922 H   0  0  0  0  0  0  0  0  0  0  0  0
  107.4785   68.2902   30.0875 H   0  0  0  0  0  0  0  0  0  0  0  0
  107.7038   68.1278   33.1163 H   0  0  0  0  0  0  0  0  0  0  0  0
  107.0327   66.8629   31.9957 H   0  0  0  0  0  0  0  0  0  0  0  0
  109.5166   67.2626   30.9974 H   0  0  0  0  0  0  0  0  0  0  0  0
  1  3  2  0
  1  7  1  0
  2  4  2  0
  2  8  1  0
  3 10  1  0
  4 11  1  0
  5  7  2  0
  5  9  1  0
  6  8  2  0
  6 12  1  0
  7 15  1  0
  8 18  1  0
  9 10  2  0
  9 19  1  0
 10 20  1  0
 11 12  2  0
 11 20  1  0
 12 21  1  0
 13 15  1  0
 14 16  1  0
 16 17  1  0
 17 18  1  0
  1 22  1  0
  2 23  1  0
  3 24  1  0
  4 25  1  0
  5 26  1  0
  6 27  1  0
 13 28  1  0
 13 29  1  0
 13 30  1  0
 14 31  1  0
 14 32  1  0
 14 33  1  0
 15 34  1  0
 15 35  1  0
 16 36  1  0
 16 37  1  0
 17 38  1  0
 17 39  1  0
 18 40  1  0
M  CHG  1  19  -1
M  END
>  <s_m_entry_id>  (126) 
22062

>  <s_m_Source_Path>  (126) 
C:\Users\vinicius\Downloads\Ligands_Ecoli

>  <s_m_Source_File>  (126) 
Ligands_Ecoli_o.sdf

>  <i_m_Source_File_Index>  (126) 
137

>  <i_f3d_flags>  (126) 
0

>  <r_epik_Ionization_Penalty>  (126) 
  1.3131

>  <r_epik_State_Penalty>  (126) 
  1.3587

>  <i_epik_Tot_Q>  (126) 
-1

>  <s_m_job_name>  (126) 
ligs_ecFabI_ligprep_2

>  <class_value>  (126) 
1

>  <FRED Chemgauss4 score>  (126) 
-16.310017

>  <Name>  (126) 
CHEMBL2178298

>  <Set>  (126) 
test

>  <HBA count>  (126) 
3

>  <HBD count>  (126) 
1

>  <ExactMolWt>  (126) 
288.1405306479105

>  <NumRotatableBounds>  (126) 
8

>  <FractionCsp3>  (126) 
0.29411764705882354

>  <TPSA>  (126) 
44.31999999999999

>  <LogP_WildmanCrippen>  (126) 
4.0759000000000025

>  <General_Cluster>  (126) 
4

>  <Biological_Cluster>  (126) 
1

>  <Physicochemical_Cluster>  (126) 
3

>  <Structural_Cluster>  (126) 
3

$$$$
CHEMBL2178326
     RDKit          3D

 34 36  0  0  0  0  0  0  0  0999 V2000
  111.7566   64.3762   39.7724 C   0  0  0  0  0  0  0  0  0  0  0  0
  109.3646   66.1480   33.7718 C   0  0  0  0  0  0  0  0  0  0  0  0
  109.3973   65.4243   34.9637 C   0  0  0  0  0  0  0  0  0  0  0  0
  111.1342   63.7636   38.6905 C   0  0  0  0  0  0  0  0  0  0  0  0
  112.3171   65.6397   39.6208 C   0  0  0  0  0  0  0  0  0  0  0  0
  111.4636   65.1518   33.1093 C   0  0  0  0  0  0  0  0  0  0  0  0
  108.1231   67.8223   31.0251 C   0  0  0  0  0  0  0  0  0  0  0  0
  107.5229   69.0186   31.2997 C   0  0  0  0  0  0  0  0  0  0  0  0
  109.5340   69.0350   32.2247 C   0  0  0  0  0  0  0  0  0  0  0  0
  110.3978   66.0118   32.8445 C   0  0  0  0  0  0  0  0  0  0  0  0
  110.4631   64.5643   35.2285 C   0  0  0  0  0  0  0  0  0  0  0  0
  111.4963   64.4281   34.3013 C   0  0  0  0  0  0  0  0  0  0  0  0
  111.0991   64.4509   37.4879 C   0  0  0  0  0  0  0  0  0  0  0  0
  112.2292   66.2429   38.3765 C   0  0  0  0  0  0  0  0  0  0  0  0
  110.3617   66.7836   31.5690 C   0  0  0  0  0  0  0  0  0  0  0  0
  111.6325   65.6792   37.3024 N   0  0  0  0  0  0  0  0  0  0  0  0
  109.3664   67.8601   31.6090 N   0  0  0  0  0  0  0  0  0  0  0  0
  108.4183   69.7489   32.0433 N   0  0  0  0  0  4  0  0  0  0  0  0
  112.5429   63.5920   34.5491 O   0  0  0  0  0  0  0  0  0  0  0  0
  110.4833   63.8632   36.3965 O   0  0  0  0  0  0  0  0  0  0  0  0
  112.7646   67.4631   38.2168 F   0  0  0  0  0  0  0  0  0  0  0  0
  111.8054   63.8634   40.7443 H   0  0  0  0  0  0  0  0  0  0  0  0
  108.5241   66.8262   33.5630 H   0  0  0  0  0  0  0  0  0  0  0  0
  108.5826   65.5318   35.6949 H   0  0  0  0  0  0  0  0  0  0  0  0
  110.6838   62.7646   38.7863 H   0  0  0  0  0  0  0  0  0  0  0  0
  112.8146   66.1444   40.4621 H   0  0  0  0  0  0  0  0  0  0  0  0
  112.2783   65.0443   32.3781 H   0  0  0  0  0  0  0  0  0  0  0  0
  107.6940   66.9898   30.4481 H   0  0  0  0  0  0  0  0  0  0  0  0
  106.5174   69.3357   30.9861 H   0  0  0  0  0  0  0  0  0  0  0  0
  110.4278   69.3560   32.7798 H   0  0  0  0  0  0  0  0  0  0  0  0
  111.3542   67.2233   31.3912 H   0  0  0  0  0  0  0  0  0  0  0  0
  110.0836   66.0921   30.7600 H   0  0  0  0  0  0  0  0  0  0  0  0
  108.2552   70.6994   32.4050 H   0  0  0  0  0  0  0  0  0  0  0  0
  112.5742   63.0746   35.3925 H   0  0  0  0  0  0  0  0  0  0  0  0
  1  4  2  0
  1  5  1  0
  2  3  2  0
  2 10  1  0
  3 11  1  0
  4 13  1  0
  5 14  2  0
  6 10  2  0
  6 12  1  0
  7  8  2  0
  7 17  1  0
  8 18  1  0
  9 17  1  0
  9 18  2  0
 10 15  1  0
 11 12  2  0
 11 20  1  0
 12 19  1  0
 13 16  2  0
 13 20  1  0
 14 16  1  0
 14 21  1  0
 15 17  1  0
  1 22  1  0
  2 23  1  0
  3 24  1  0
  4 25  1  0
  5 26  1  0
  6 27  1  0
  7 28  1  0
  8 29  1  0
  9 30  1  0
 15 31  1  0
 15 32  1  0
 18 33  1  0
 19 34  1  0
M  CHG  1  18   1
M  END
>  <s_m_entry_id>  (127) 
22058

>  <s_m_Source_Path>  (127) 
C:\Users\vinicius\Downloads\Ligands_Ecoli

>  <s_m_Source_File>  (127) 
Ligands_Ecoli_o.sdf

>  <i_m_Source_File_Index>  (127) 
135

>  <i_f3d_flags>  (127) 
0

>  <r_lp_tautomer_probability>  (127) 
1

>  <r_epik_Ionization_Penalty>  (127) 
  0.8763

>  <r_epik_State_Penalty>  (127) 
  0.9281

>  <i_epik_Tot_Q>  (127) 
1

>  <s_m_job_name>  (127) 
ligs_ecFabI_ligprep_2

>  <class_value>  (127) 
0

>  <FRED Chemgauss4 score>  (127) 
-17.635727

>  <Name>  (127) 
CHEMBL2178326

>  <Set>  (127) 
test

>  <HBA count>  (127) 
4

>  <HBD count>  (127) 
1

>  <ExactMolWt>  (127) 
286.0986312960904

>  <NumRotatableBounds>  (127) 
5

>  <FractionCsp3>  (127) 
0.06666666666666667

>  <TPSA>  (127) 
61.42

>  <LogP_WildmanCrippen>  (127) 
2.3825

>  <General_Cluster>  (127) 
2

>  <Biological_Cluster>  (127) 
2

>  <Physicochemical_Cluster>  (127) 
6

>  <Structural_Cluster>  (127) 
3

$$$$
CHEMBL431763
     RDKit          3D

 33 35  0  0  0  0  0  0  0  0999 V2000
  112.5103   65.3486   39.4448 C   0  0  0  0  0  0  0  0  0  0  0  0
  112.3755   66.1601   38.3184 C   0  0  0  0  0  0  0  0  0  0  0  0
  111.8632   64.1139   39.4964 C   0  0  0  0  0  0  0  0  0  0  0  0
  111.5936   65.7371   37.2436 C   0  0  0  0  0  0  0  0  0  0  0  0
  110.0034   68.8793   32.7258 C   0  0  0  0  0  0  0  0  0  0  0  0
  109.5659   65.9082   34.4869 C   0  0  0  0  0  0  0  0  0  0  0  0
  109.4093   69.7015   31.7939 C   0  0  0  0  0  0  0  0  0  0  0  0
  108.8362   67.3362   31.4378 C   0  0  0  0  0  0  0  0  0  0  0  0
  111.4283   64.7631   34.1393 C   0  0  0  0  0  0  0  0  0  0  0  0
  109.6716   67.5090   32.5196 C   0  0  0  0  0  0  0  0  0  0  0  0
  111.0813   63.6909   38.4216 C   0  0  0  0  0  0  0  0  0  0  0  0
  110.9464   64.5024   37.2952 C   0  0  0  0  0  0  0  0  0  0  0  0
  110.1641   66.4068   33.3642 C   0  0  0  0  0  0  0  0  0  0  0  0
  110.3987   62.3646   38.4985 C   0  0  0  0  0  0  0  0  0  0  0  0
  110.1140   64.0711   36.1325 C   0  0  0  0  0  0  0  0  0  0  0  0
  110.3694   64.8922   34.9453 N   0  0  0  0  0  0  0  0  0  0  0  0
  111.3144   65.6799   33.1729 N   0  0  0  0  0  4  0  0  0  0  0  0
  108.4558   68.8219   30.6761 S   0  0  0  0  0  0  0  0  0  0  0  0
  113.1269   65.6823   40.2924 H   0  0  0  0  0  0  0  0  0  0  0  0
  112.8858   67.1337   38.2777 H   0  0  0  0  0  0  0  0  0  0  0  0
  111.9696   63.4739   40.3847 H   0  0  0  0  0  0  0  0  0  0  0  0
  111.4873   66.3771   36.3553 H   0  0  0  0  0  0  0  0  0  0  0  0
  110.6572   69.2384   33.5342 H   0  0  0  0  0  0  0  0  0  0  0  0
  108.6233   66.2534   34.9368 H   0  0  0  0  0  0  0  0  0  0  0  0
  109.5328   70.7943   31.7705 H   0  0  0  0  0  0  0  0  0  0  0  0
  108.4581   66.3590   31.1028 H   0  0  0  0  0  0  0  0  0  0  0  0
  112.2450   64.0347   34.2510 H   0  0  0  0  0  0  0  0  0  0  0  0
  110.2556   62.0865   39.5531 H   0  0  0  0  0  0  0  0  0  0  0  0
  109.4203   62.4263   37.9995 H   0  0  0  0  0  0  0  0  0  0  0  0
  111.0175   61.6043   37.9995 H   0  0  0  0  0  0  0  0  0  0  0  0
  110.3477   63.0223   35.8970 H   0  0  0  0  0  0  0  0  0  0  0  0
  109.0555   64.1883   36.4078 H   0  0  0  0  0  0  0  0  0  0  0  0
  111.9852   65.8197   32.4039 H   0  0  0  0  0  0  0  0  0  0  0  0
  1  2  2  0
  1  3  1  0
  2  4  1  0
  3 11  2  0
  4 12  2  0
  5  7  2  0
  5 10  1  0
  6 13  2  0
  6 16  1  0
  7 18  1  0
  8 10  2  0
  8 18  1  0
  9 16  1  0
  9 17  2  0
 10 13  1  0
 11 12  1  0
 11 14  1  0
 12 15  1  0
 13 17  1  0
 15 16  1  0
  1 19  1  0
  2 20  1  0
  3 21  1  0
  4 22  1  0
  5 23  1  0
  6 24  1  0
  7 25  1  0
  8 26  1  0
  9 27  1  0
 14 28  1  0
 14 29  1  0
 14 30  1  0
 15 31  1  0
 15 32  1  0
 17 33  1  0
M  CHG  1  17   1
M  END
>  <s_m_entry_id>  (128) 
21870

>  <s_m_Source_Path>  (128) 
C:\Users\vinicius\Downloads\Ligands_Ecoli

>  <s_m_Source_File>  (128) 
Ligands_Ecoli_o.sdf

>  <i_m_Source_File_Index>  (128) 
39

>  <i_f3d_flags>  (128) 
0

>  <r_lp_tautomer_probability>  (128) 
1

>  <r_epik_Ionization_Penalty>  (128) 
  0.8997

>  <r_epik_State_Penalty>  (128) 
  0.9395

>  <i_epik_Tot_Q>  (128) 
1

>  <s_m_job_name>  (128) 
ligs_ecFabI_ligprep_2

>  <class_value>  (128) 
0

>  <FRED Chemgauss4 score>  (128) 
-16.408838

>  <Name>  (128) 
CHEMBL431763

>  <Set>  (128) 
test

>  <HBA count>  (128) 
2

>  <HBD count>  (128) 
0

>  <ExactMolWt>  (128) 
255.09504590008999

>  <NumRotatableBounds>  (128) 
4

>  <FractionCsp3>  (128) 
0.13333333333333333

>  <TPSA>  (128) 
19.07

>  <LogP_WildmanCrippen>  (128) 
3.3874200000000023

>  <General_Cluster>  (128) 
2

>  <Biological_Cluster>  (128) 
2

>  <Physicochemical_Cluster>  (128) 
6

>  <Structural_Cluster>  (128) 
1

$$$$
CHEMBL71861
     RDKit          3D

 52 56  0  0  0  0  0  0  0  0999 V2000
  109.2429   68.7002   43.2870 C   0  0  0  0  0  0  0  0  0  0  0  0
  109.2467   67.7002   44.2570 C   0  0  0  0  0  0  0  0  0  0  0  0
  106.8899   62.1831   42.1417 C   0  0  0  0  0  0  0  0  0  0  0  0
  109.5625   68.4084   41.9561 C   0  0  0  0  0  0  0  0  0  0  0  0
  111.6274   64.5728   35.1105 C   0  0  0  0  0  0  0  0  0  0  0  0
  109.3252   65.2272   35.4397 C   0  0  0  0  0  0  0  0  0  0  0  0
  108.1421   62.7451   41.8933 C   0  0  0  0  0  0  0  0  0  0  0  0
  109.5685   66.3800   43.9299 C   0  0  0  0  0  0  0  0  0  0  0  0
  106.4961   61.9083   43.4513 C   0  0  0  0  0  0  0  0  0  0  0  0
  111.6377   65.2283   33.8793 C   0  0  0  0  0  0  0  0  0  0  0  0
  109.3355   65.8828   34.2085 C   0  0  0  0  0  0  0  0  0  0  0  0
  108.6068   62.7574   44.2642 C   0  0  0  0  0  0  0  0  0  0  0  0
  109.8914   67.0849   41.6008 C   0  0  0  0  0  0  0  0  0  0  0  0
  110.4711   64.5722   35.8907 C   0  0  0  0  0  0  0  0  0  0  0  0
  110.2566   66.4412   40.3873 C   0  0  0  0  0  0  0  0  0  0  0  0
  109.0006   63.0322   42.9546 C   0  0  0  0  0  0  0  0  0  0  0  0
  109.8861   66.1006   42.5956 C   0  0  0  0  0  0  0  0  0  0  0  0
  110.4918   65.8833   33.4283 C   0  0  0  0  0  0  0  0  0  0  0  0
  107.3546   62.1954   44.5126 C   0  0  0  0  0  0  0  0  0  0  0  0
  110.4559   65.1057   40.6664 C   0  0  0  0  0  0  0  0  0  0  0  0
  110.4601   63.8812   37.1890 C   0  0  0  0  0  0  0  0  0  0  0  0
  110.4157   66.9745   39.0074 C   0  0  0  0  0  0  0  0  0  0  0  0
  110.8580   64.0476   39.7034 C   0  0  0  0  0  0  0  0  0  0  0  0
  111.2723   66.0092   38.1703 C   0  0  0  0  0  0  0  0  0  0  0  0
  110.3517   63.6381   42.6864 C   0  0  0  0  0  0  0  0  0  0  0  0
  110.2348   64.9070   41.9990 N   0  0  0  0  0  0  0  0  0  0  0  0
  110.8290   64.6071   38.3278 N   0  0  0  0  0  0  0  0  0  0  0  0
  110.1157   62.7002   37.1754 O   0  0  0  0  0  0  0  0  0  0  0  0
  110.5015   66.5229   32.2270 O   0  0  0  0  0  0  0  0  0  0  0  0
  106.9700   61.9277   45.7906 O   0  0  0  0  0  0  0  0  0  0  0  0
  108.9856   69.7314   43.5706 H   0  0  0  0  0  0  0  0  0  0  0  0
  108.9924   67.9537   45.2968 H   0  0  0  0  0  0  0  0  0  0  0  0
  106.2129   61.9566   41.3048 H   0  0  0  0  0  0  0  0  0  0  0  0
  109.5570   69.2033   41.1958 H   0  0  0  0  0  0  0  0  0  0  0  0
  112.5311   64.0563   35.4662 H   0  0  0  0  0  0  0  0  0  0  0  0
  108.4134   65.2268   36.0549 H   0  0  0  0  0  0  0  0  0  0  0  0
  108.4526   62.9619   40.8605 H   0  0  0  0  0  0  0  0  0  0  0  0
  109.5721   65.5886   44.6939 H   0  0  0  0  0  0  0  0  0  0  0  0
  105.5085   61.4652   43.6472 H   0  0  0  0  0  0  0  0  0  0  0  0
  112.5495   65.2287   33.2640 H   0  0  0  0  0  0  0  0  0  0  0  0
  108.4318   66.3994   33.8529 H   0  0  0  0  0  0  0  0  0  0  0  0
  109.2838   62.9839   45.1011 H   0  0  0  0  0  0  0  0  0  0  0  0
  109.4252   67.0817   38.5410 H   0  0  0  0  0  0  0  0  0  0  0  0
  110.9127   67.9548   39.0523 H   0  0  0  0  0  0  0  0  0  0  0  0
  111.8753   63.7020   39.9393 H   0  0  0  0  0  0  0  0  0  0  0  0
  110.1621   63.1986   39.7733 H   0  0  0  0  0  0  0  0  0  0  0  0
  111.1936   66.2909   37.1099 H   0  0  0  0  0  0  0  0  0  0  0  0
  112.3123   66.0814   38.5214 H   0  0  0  0  0  0  0  0  0  0  0  0
  110.8694   63.7962   43.6440 H   0  0  0  0  0  0  0  0  0  0  0  0
  110.9193   62.9480   42.0449 H   0  0  0  0  0  0  0  0  0  0  0  0
  109.6880   66.9877   31.9071 H   0  0  0  0  0  0  0  0  0  0  0  0
  107.5793   62.1314   46.5439 H   0  0  0  0  0  0  0  0  0  0  0  0
  1  2  2  0
  1  4  1  0
  2  8  1  0
  3  7  2  0
  3  9  1  0
  4 13  2  0
  5 10  2  0
  5 14  1  0
  6 11  1  0
  6 14  2  0
  7 16  1  0
  8 17  2  0
  9 19  2  0
 10 18  1  0
 11 18  2  0
 12 16  2  0
 12 19  1  0
 13 15  1  0
 13 17  1  0
 14 21  1  0
 15 20  2  0
 15 22  1  0
 16 25  1  0
 17 26  1  0
 18 29  1  0
 19 30  1  0
 20 23  1  0
 20 26  1  0
 21 27  1  0
 21 28  2  0
 22 24  1  0
 23 27  1  0
 24 27  1  0
 25 26  1  0
  1 31  1  0
  2 32  1  0
  3 33  1  0
  4 34  1  0
  5 35  1  0
  6 36  1  0
  7 37  1  0
  8 38  1  0
  9 39  1  0
 10 40  1  0
 11 41  1  0
 12 42  1  0
 22 43  1  0
 22 44  1  0
 23 45  1  0
 23 46  1  0
 24 47  1  0
 24 48  1  0
 25 49  1  0
 25 50  1  0
 29 51  1  0
 30 52  1  0
M  END
>  <s_m_entry_id>  (129) 
21815

>  <s_m_Source_Path>  (129) 
C:\Users\vinicius\Downloads\Ligands_Ecoli

>  <s_m_Source_File>  (129) 
Ligands_Ecoli_o.sdf

>  <i_m_Source_File_Index>  (129) 
7

>  <i_f3d_flags>  (129) 
0

>  <r_lp_tautomer_probability>  (129) 
0.99999999999473

>  <r_epik_Ionization_Penalty>  (129) 
  0.0400

>  <r_epik_State_Penalty>  (129) 
  0.0299

>  <i_epik_Tot_Q>  (129) 
0

>  <s_m_job_name>  (129) 
ligs_ecFabI_ligprep_2

>  <class_value>  (129) 
0

>  <FRED Chemgauss4 score>  (129) 
-12.747574

>  <Name>  (129) 
CHEMBL71861

>  <Set>  (129) 
test

>  <HBA count>  (129) 
4

>  <HBD count>  (129) 
2

>  <ExactMolWt>  (129) 
398.1630425640006

>  <NumRotatableBounds>  (129) 
5

>  <FractionCsp3>  (129) 
0.16

>  <TPSA>  (129) 
65.7

>  <LogP_WildmanCrippen>  (129) 
4.299300000000004

>  <General_Cluster>  (129) 
1

>  <Biological_Cluster>  (129) 
2

>  <Physicochemical_Cluster>  (129) 
3

>  <Structural_Cluster>  (129) 
7

$$$$
CHEMBL235273
     RDKit          3D

 48 51  0  0  0  0  0  0  0  0999 V2000
  107.4595   69.1713   31.5004 C   0  0  0  0  0  0  0  0  0  0  0  0
  108.7416   69.0412   30.9666 C   0  0  0  0  0  0  0  0  0  0  0  0
  107.1028   68.4524   32.6413 C   0  0  0  0  0  0  0  0  0  0  0  0
  109.6669   68.1921   31.5736 C   0  0  0  0  0  0  0  0  0  0  0  0
  108.0281   67.6033   33.2483 C   0  0  0  0  0  0  0  0  0  0  0  0
  109.3586   64.5691   45.7215 C   0  0  0  0  0  0  0  0  0  0  0  0
  106.9782   64.9813   45.7500 C   0  0  0  0  0  0  0  0  0  0  0  0
  109.5531   65.7426   44.9930 C   0  0  0  0  0  0  0  0  0  0  0  0
  107.1727   66.1548   45.0216 C   0  0  0  0  0  0  0  0  0  0  0  0
  110.7002   67.7971   41.7470 C   0  0  0  0  0  0  0  0  0  0  0  0
  111.5695   66.3497   32.9506 C   0  0  0  0  0  0  0  0  0  0  0  0
  109.3102   67.4731   32.7145 C   0  0  0  0  0  0  0  0  0  0  0  0
  108.0711   64.1884   46.0999 C   0  0  0  0  0  0  0  0  0  0  0  0
  108.4601   66.5355   44.6431 C   0  0  0  0  0  0  0  0  0  0  0  0
  110.2845   66.5793   33.3543 C   0  0  0  0  0  0  0  0  0  0  0  0
  109.4580   67.4602   42.2425 C   0  0  0  0  0  0  0  0  0  0  0  0
  111.1942   65.1320   34.7608 C   0  0  0  0  0  0  0  0  0  0  0  0
  110.0860   66.3980   40.1737 C   0  0  0  0  0  0  0  0  0  0  0  0
  107.8653   62.9503   46.8686 C   0  0  0  0  0  0  0  0  0  0  0  0
  111.0157   65.4450   38.0271 C   0  0  0  0  0  0  0  0  0  0  0  0
  111.3832   64.1959   35.8932 C   0  0  0  0  0  0  0  0  0  0  0  0
  111.0622   67.1887   40.5610 N   0  0  0  0  0  0  0  0  0  0  0  0
  112.1087   65.4509   33.8391 N   0  0  0  0  0  0  0  0  0  0  0  0
  110.0794   65.8129   34.4761 N   0  0  0  0  0  4  0  0  0  0  0  0
  110.0382   65.5869   39.0160 N   0  0  0  0  0  0  0  0  0  0  0  0
  110.5855   64.5461   37.0457 N   0  0  0  0  0  0  0  0  0  0  0  0
  106.6664   62.6220   47.2056 O   0  0  0  0  0  1  0  0  0  0  0  0
  108.8909   62.2358   47.1793 O   0  0  0  0  0  0  0  0  0  0  0  0
  112.1065   66.0092   37.9890 O   0  0  0  0  0  0  0  0  0  0  0  0
  108.7029   66.3382   41.1879 S   0  0  0  0  0  0  0  0  0  0  0  0
  108.7105   68.0461   43.7079 S   0  0  0  0  0  0  0  0  0  0  0  0
  106.7297   69.8408   31.0217 H   0  0  0  0  0  0  0  0  0  0  0  0
  109.0230   69.6082   30.0670 H   0  0  0  0  0  0  0  0  0  0  0  0
  106.0918   68.5551   33.0623 H   0  0  0  0  0  0  0  0  0  0  0  0
  110.6779   68.0895   31.1526 H   0  0  0  0  0  0  0  0  0  0  0  0
  107.7467   67.0363   34.1480 H   0  0  0  0  0  0  0  0  0  0  0  0
  110.2205   63.9439   45.9976 H   0  0  0  0  0  0  0  0  0  0  0  0
  105.9629   64.6811   46.0485 H   0  0  0  0  0  0  0  0  0  0  0  0
  110.5684   66.0428   44.6944 H   0  0  0  0  0  0  0  0  0  0  0  0
  106.3108   66.7801   44.7456 H   0  0  0  0  0  0  0  0  0  0  0  0
  111.3622   68.5069   42.2647 H   0  0  0  0  0  0  0  0  0  0  0  0
  112.0747   66.7978   32.0822 H   0  0  0  0  0  0  0  0  0  0  0  0
  111.1015   63.1847   35.5645 H   0  0  0  0  0  0  0  0  0  0  0  0
  112.4403   64.2467   36.1932 H   0  0  0  0  0  0  0  0  0  0  0  0
  113.0689   65.0802   33.8010 H   0  0  0  0  0  0  0  0  0  0  0  0
  109.2024   65.7696   35.0145 H   0  0  0  0  0  0  0  0  0  0  0  0
  109.1791   65.0339   38.8859 H   0  0  0  0  0  0  0  0  0  0  0  0
  109.6565   64.1136   37.1495 H   0  0  0  0  0  0  0  0  0  0  0  0
  1  2  2  0
  1  3  1  0
  2  4  1  0
  3  5  2  0
  4 12  2  0
  5 12  1  0
  6  8  2  0
  6 13  1  0
  7  9  1  0
  7 13  2  0
  8 14  1  0
  9 14  2  0
 10 16  2  0
 10 22  1  0
 11 15  2  0
 11 23  1  0
 12 15  1  0
 13 19  1  0
 14 31  1  0
 15 24  1  0
 16 30  1  0
 16 31  1  0
 17 21  1  0
 17 23  1  0
 17 24  2  0
 18 22  2  0
 18 25  1  0
 18 30  1  0
 19 27  1  0
 19 28  2  0
 20 25  1  0
 20 26  1  0
 20 29  2  0
 21 26  1  0
  1 32  1  0
  2 33  1  0
  3 34  1  0
  4 35  1  0
  5 36  1  0
  6 37  1  0
  7 38  1  0
  8 39  1  0
  9 40  1  0
 10 41  1  0
 11 42  1  0
 21 43  1  0
 21 44  1  0
 23 45  1  0
 24 46  1  0
 25 47  1  0
 26 48  1  0
M  CHG  2  24   1  27  -1
M  END
>  <s_m_entry_id>  (130) 
21893

>  <s_m_Source_Path>  (130) 
C:\Users\vinicius\Downloads\Ligands_Ecoli

>  <s_m_Source_File>  (130) 
Ligands_Ecoli_o.sdf

>  <i_m_Source_File_Index>  (130) 
51

>  <i_f3d_flags>  (130) 
0

>  <r_lp_tautomer_probability>  (130) 
0.999000488399163

>  <r_epik_Ionization_Penalty>  (130) 
  2.2423

>  <r_epik_State_Penalty>  (130) 
  1.5485

>  <i_epik_Tot_Q>  (130) 
0

>  <s_m_job_name>  (130) 
ligs_ecFabI_ligprep_2

>  <class_value>  (130) 
0

>  <FRED Chemgauss4 score>  (130) 
-13.385255

>  <Name>  (130) 
CHEMBL235273

>  <Set>  (130) 
test

>  <HBA count>  (130) 
6

>  <HBD count>  (130) 
3

>  <ExactMolWt>  (130) 
451.0772814040006

>  <NumRotatableBounds>  (130) 
7

>  <FractionCsp3>  (130) 
0.047619047619047616

>  <TPSA>  (130) 
124.07999999999998

>  <LogP_WildmanCrippen>  (130) 
2.7887

>  <General_Cluster>  (130) 
3

>  <Biological_Cluster>  (130) 
2

>  <Physicochemical_Cluster>  (130) 
7

>  <Structural_Cluster>  (130) 
4

$$$$
CHEMBL237837
     RDKit          3D

 42 45  0  0  0  0  0  0  0  0999 V2000
  110.6003   65.7726   32.6248 C   0  0  0  0  0  0  0  0  0  0  0  0
  109.3210   66.1683   33.0222 C   0  0  0  0  0  0  0  0  0  0  0  0
  111.6096   65.5417   33.5679 C   0  0  0  0  0  0  0  0  0  0  0  0
  107.9220   66.1974   42.9036 C   0  0  0  0  0  0  0  0  0  0  0  0
  109.0034   66.3472   34.3727 C   0  0  0  0  0  0  0  0  0  0  0  0
  107.0077   66.2211   43.9609 C   0  0  0  0  0  0  0  0  0  0  0  0
  106.7738   63.8098   43.8627 C   0  0  0  0  0  0  0  0  0  0  0  0
  111.3081   65.7169   34.9291 C   0  0  0  0  0  0  0  0  0  0  0  0
  108.2744   64.9661   42.3098 C   0  0  0  0  0  0  0  0  0  0  0  0
  110.0242   66.1116   35.2943 C   0  0  0  0  0  0  0  0  0  0  0  0
  107.6929   63.7934   42.8013 C   0  0  0  0  0  0  0  0  0  0  0  0
  106.4423   65.0416   44.4326 C   0  0  0  0  0  0  0  0  0  0  0  0
  111.3305   65.8479   37.0602 C   0  0  0  0  0  0  0  0  0  0  0  0
  109.2481   63.5123   40.9662 C   0  0  0  0  0  0  0  0  0  0  0  0
  110.9051   63.5329   39.0597 C   0  0  0  0  0  0  0  0  0  0  0  0
  103.7197   65.2829   44.9647 C   0  0  0  0  0  0  0  0  0  0  0  0
  111.7063   65.8304   38.4863 C   0  0  0  0  0  0  0  0  0  0  0  0
  112.1054   65.5578   36.0392 N   0  0  0  0  0  0  0  0  0  0  0  0
  109.1629   64.7888   41.2592 N   0  0  0  0  0  0  0  0  0  0  0  0
  110.0672   66.1875   36.6628 N   0  0  0  0  0  0  0  0  0  0  0  0
  110.0396   62.9079   39.9618 N   0  0  0  0  0  0  0  0  0  0  0  0
  110.9052   64.9143   39.2698 N   0  0  0  0  0  0  0  0  0  0  0  0
  111.5830   62.9837   38.1946 O   0  0  0  0  0  0  0  0  0  0  0  0
  105.3223   63.8021   46.4185 O   0  0  0  0  0  0  0  0  0  0  0  0
  105.5357   66.3098   46.5273 O   0  0  0  0  0  0  0  0  0  0  0  0
  108.2930   62.4482   41.9051 S   0  0  0  0  0  0  0  0  0  0  0  0
  105.3014   65.0976   45.7557 S   0  0  0  0  0  6  0  0  0  0  0  0
  110.8183   65.6403   31.5548 H   0  0  0  0  0  0  0  0  0  0  0  0
  108.5486   66.3425   32.2586 H   0  0  0  0  0  0  0  0  0  0  0  0
  112.6156   65.2302   33.2502 H   0  0  0  0  0  0  0  0  0  0  0  0
  108.3651   67.1346   42.5358 H   0  0  0  0  0  0  0  0  0  0  0  0
  107.9980   66.6584   34.6925 H   0  0  0  0  0  0  0  0  0  0  0  0
  106.7333   67.1807   44.4234 H   0  0  0  0  0  0  0  0  0  0  0  0
  106.3263   62.8768   44.2359 H   0  0  0  0  0  0  0  0  0  0  0  0
  102.9353   65.3748   45.7304 H   0  0  0  0  0  0  0  0  0  0  0  0
  103.7272   66.1863   44.3372 H   0  0  0  0  0  0  0  0  0  0  0  0
  103.5181   64.4022   44.3372 H   0  0  0  0  0  0  0  0  0  0  0  0
  112.7617   65.5310   38.5673 H   0  0  0  0  0  0  0  0  0  0  0  0
  111.5353   66.8414   38.8846 H   0  0  0  0  0  0  0  0  0  0  0  0
  109.2872   66.4529   37.2809 H   0  0  0  0  0  0  0  0  0  0  0  0
  109.9697   61.8831   39.8860 H   0  0  0  0  0  0  0  0  0  0  0  0
  110.3081   65.2981   40.0161 H   0  0  0  0  0  0  0  0  0  0  0  0
  1  2  2  0
  1  3  1  0
  2  5  1  0
  3  8  2  0
  4  6  2  0
  4  9  1  0
  5 10  2  0
  6 12  1  0
  7 11  1  0
  7 12  2  0
  8 10  1  0
  8 18  1  0
  9 11  2  0
  9 19  1  0
 10 20  1  0
 11 26  1  0
 12 27  1  0
 13 17  1  0
 13 18  2  0
 13 20  1  0
 14 19  2  0
 14 21  1  0
 14 26  1  0
 15 21  1  0
 15 22  1  0
 15 23  2  0
 16 27  1  0
 17 22  1  0
 24 27  2  0
 25 27  2  0
  1 28  1  0
  2 29  1  0
  3 30  1  0
  4 31  1  0
  5 32  1  0
  6 33  1  0
  7 34  1  0
 16 35  1  0
 16 36  1  0
 16 37  1  0
 17 38  1  0
 17 39  1  0
 20 40  1  0
 21 41  1  0
 22 42  1  0
M  END
>  <s_m_entry_id>  (131) 
21903

>  <s_m_Source_Path>  (131) 
C:\Users\vinicius\Downloads\Ligands_Ecoli

>  <s_m_Source_File>  (131) 
Ligands_Ecoli_o.sdf

>  <i_m_Source_File_Index>  (131) 
57

>  <i_f3d_flags>  (131) 
0

>  <r_epik_Ionization_Penalty>  (131) 
  0.0157

>  <r_epik_State_Penalty>  (131) 
  0.0107

>  <i_epik_Tot_Q>  (131) 
0

>  <s_m_job_name>  (131) 
ligs_ecFabI_ligprep_2

>  <class_value>  (131) 
0

>  <FRED Chemgauss4 score>  (131) 
-13.702026

>  <Name>  (131) 
CHEMBL237837

>  <Set>  (131) 
test

>  <HBA count>  (131) 
6

>  <HBD count>  (131) 
3

>  <ExactMolWt>  (131) 
401.0616313400004

>  <NumRotatableBounds>  (131) 
5

>  <FractionCsp3>  (131) 
0.11764705882352941

>  <TPSA>  (131) 
116.83999999999997

>  <LogP_WildmanCrippen>  (131) 
2.8978

>  <General_Cluster>  (131) 
3

>  <Biological_Cluster>  (131) 
2

>  <Physicochemical_Cluster>  (131) 
7

>  <Structural_Cluster>  (131) 
4

$$$$
CHEMBL72286
     RDKit          3D

 51 55  0  0  0  0  0  0  0  0999 V2000
  109.6872   68.9157   42.9374 C   0  0  0  0  0  0  0  0  0  0  0  0
  109.3325   66.0507   33.9470 C   0  0  0  0  0  0  0  0  0  0  0  0
  109.6942   67.9211   43.9129 C   0  0  0  0  0  0  0  0  0  0  0  0
  110.4309   66.0535   33.0873 C   0  0  0  0  0  0  0  0  0  0  0  0
  109.9578   68.6085   41.5991 C   0  0  0  0  0  0  0  0  0  0  0  0
  109.4053   65.3827   35.1694 C   0  0  0  0  0  0  0  0  0  0  0  0
  108.9229   62.9977   43.9696 C   0  0  0  0  0  0  0  0  0  0  0  0
  108.3857   62.9846   41.6142 C   0  0  0  0  0  0  0  0  0  0  0  0
  109.9705   66.5911   43.5840 C   0  0  0  0  0  0  0  0  0  0  0  0
  111.6021   65.3883   33.4500 C   0  0  0  0  0  0  0  0  0  0  0  0
  107.6644   62.4708   44.2597 C   0  0  0  0  0  0  0  0  0  0  0  0
  107.1272   62.4576   41.9042 C   0  0  0  0  0  0  0  0  0  0  0  0
  110.2402   67.2747   41.2419 C   0  0  0  0  0  0  0  0  0  0  0  0
  110.5765   64.7175   35.5321 C   0  0  0  0  0  0  0  0  0  0  0  0
  110.5505   66.6152   40.0217 C   0  0  0  0  0  0  0  0  0  0  0  0
  109.2835   63.2547   42.6469 C   0  0  0  0  0  0  0  0  0  0  0  0
  110.2392   66.2962   42.2424 C   0  0  0  0  0  0  0  0  0  0  0  0
  111.6749   64.7203   34.6723 C   0  0  0  0  0  0  0  0  0  0  0  0
  106.7666   62.2007   43.2269 C   0  0  0  0  0  0  0  0  0  0  0  0
  110.7226   65.2763   40.3026 C   0  0  0  0  0  0  0  0  0  0  0  0
  110.5870   64.0339   36.8343 C   0  0  0  0  0  0  0  0  0  0  0  0
  110.6812   67.1368   38.6344 C   0  0  0  0  0  0  0  0  0  0  0  0
  111.0665   64.2027   39.3342 C   0  0  0  0  0  0  0  0  0  0  0  0
  111.4856   66.1444   37.7773 C   0  0  0  0  0  0  0  0  0  0  0  0
  110.6414   63.8226   42.3338 C   0  0  0  0  0  0  0  0  0  0  0  0
  110.5374   65.0906   41.6426 N   0  0  0  0  0  0  0  0  0  0  0  0
  111.0100   64.7556   37.9568 N   0  0  0  0  0  0  0  0  0  0  0  0
  112.7628   64.1152   34.9842 O   0  0  0  0  0  1  0  0  0  0  0  0
  110.2109   62.8625   36.8384 O   0  0  0  0  0  0  0  0  0  0  0  0
  105.5391   61.6853   43.5100 O   0  0  0  0  0  0  0  0  0  0  0  0
  109.4663   69.9549   43.2225 H   0  0  0  0  0  0  0  0  0  0  0  0
  108.4089   66.5753   33.6610 H   0  0  0  0  0  0  0  0  0  0  0  0
  109.4789   68.1867   44.9584 H   0  0  0  0  0  0  0  0  0  0  0  0
  110.3735   66.5803   32.1233 H   0  0  0  0  0  0  0  0  0  0  0  0
  109.9502   69.3993   40.8345 H   0  0  0  0  0  0  0  0  0  0  0  0
  108.5391   65.3805   35.8474 H   0  0  0  0  0  0  0  0  0  0  0  0
  109.6310   63.2106   44.7840 H   0  0  0  0  0  0  0  0  0  0  0  0
  108.6701   63.1872   40.5711 H   0  0  0  0  0  0  0  0  0  0  0  0
  109.9766   65.8039   44.3523 H   0  0  0  0  0  0  0  0  0  0  0  0
  112.4683   65.3905   32.7720 H   0  0  0  0  0  0  0  0  0  0  0  0
  107.3800   62.2683   45.3028 H   0  0  0  0  0  0  0  0  0  0  0  0
  106.4191   62.2446   41.0898 H   0  0  0  0  0  0  0  0  0  0  0  0
  109.6801   67.2681   38.1980 H   0  0  0  0  0  0  0  0  0  0  0  0
  111.2053   68.1036   38.6581 H   0  0  0  0  0  0  0  0  0  0  0  0
  112.0810   63.8311   39.5408 H   0  0  0  0  0  0  0  0  0  0  0  0
  110.3508   63.3730   39.4306 H   0  0  0  0  0  0  0  0  0  0  0  0
  111.3819   66.4226   36.7181 H   0  0  0  0  0  0  0  0  0  0  0  0
  112.5374   66.1904   38.0959 H   0  0  0  0  0  0  0  0  0  0  0  0
  111.1924   63.9717   43.2741 H   0  0  0  0  0  0  0  0  0  0  0  0
  111.1704   63.1141   41.6794 H   0  0  0  0  0  0  0  0  0  0  0  0
  104.9017   61.4935   42.7771 H   0  0  0  0  0  0  0  0  0  0  0  0
  1  3  2  0
  1  5  1  0
  2  4  2  0
  2  6  1  0
  3  9  1  0
  4 10  1  0
  5 13  2  0
  6 14  2  0
  7 11  2  0
  7 16  1  0
  8 12  1  0
  8 16  2  0
  9 17  2  0
 10 18  2  0
 11 19  1  0
 12 19  2  0
 13 15  1  0
 13 17  1  0
 14 18  1  0
 14 21  1  0
 15 20  2  0
 15 22  1  0
 16 25  1  0
 17 26  1  0
 18 28  1  0
 19 30  1  0
 20 23  1  0
 20 26  1  0
 21 27  1  0
 21 29  2  0
 22 24  1  0
 23 27  1  0
 24 27  1  0
 25 26  1  0
  1 31  1  0
  2 32  1  0
  3 33  1  0
  4 34  1  0
  5 35  1  0
  6 36  1  0
  7 37  1  0
  8 38  1  0
  9 39  1  0
 10 40  1  0
 11 41  1  0
 12 42  1  0
 22 43  1  0
 22 44  1  0
 23 45  1  0
 23 46  1  0
 24 47  1  0
 24 48  1  0
 25 49  1  0
 25 50  1  0
 30 51  1  0
M  CHG  1  28  -1
M  END
>  <s_m_entry_id>  (132) 
21833

>  <s_m_Source_Path>  (132) 
C:\Users\vinicius\Downloads\Ligands_Ecoli

>  <s_m_Source_File>  (132) 
Ligands_Ecoli_o.sdf

>  <i_m_Source_File_Index>  (132) 
18

>  <i_f3d_flags>  (132) 
0

>  <r_lp_tautomer_probability>  (132) 
0.999999999997365

>  <r_epik_Ionization_Penalty>  (132) 
  1.0028

>  <r_epik_State_Penalty>  (132) 
  1.0505

>  <i_epik_Tot_Q>  (132) 
-1

>  <s_m_job_name>  (132) 
ligs_ecFabI_ligprep_2

>  <class_value>  (132) 
0

>  <FRED Chemgauss4 score>  (132) 
-15.172909

>  <Name>  (132) 
CHEMBL72286

>  <Set>  (132) 
test

>  <HBA count>  (132) 
4

>  <HBD count>  (132) 
1

>  <ExactMolWt>  (132) 
397.15576611191057

>  <NumRotatableBounds>  (132) 
4

>  <FractionCsp3>  (132) 
0.16

>  <TPSA>  (132) 
68.53

>  <LogP_WildmanCrippen>  (132) 
3.6673000000000022

>  <General_Cluster>  (132) 
1

>  <Biological_Cluster>  (132) 
2

>  <Physicochemical_Cluster>  (132) 
3

>  <Structural_Cluster>  (132) 
7

$$$$
CHEMBL64645
     RDKit          3D

 33 35  0  0  0  0  0  0  0  0999 V2000
  111.6907   64.2442   39.2347 C   0  0  0  0  0  0  0  0  0  0  0  0
  112.1079   66.3729   38.1709 C   0  0  0  0  0  0  0  0  0  0  0  0
  110.9194   63.8491   38.1417 C   0  0  0  0  0  0  0  0  0  0  0  0
  111.3366   65.9778   37.0779 C   0  0  0  0  0  0  0  0  0  0  0  0
  108.9784   69.1434   32.9607 C   0  0  0  0  0  0  0  0  0  0  0  0
  109.2569   66.1660   34.3329 C   0  0  0  0  0  0  0  0  0  0  0  0
  108.4614   69.9920   32.0067 C   0  0  0  0  0  0  0  0  0  0  0  0
  108.9378   67.7578   31.0949 C   0  0  0  0  0  0  0  0  0  0  0  0
  111.1679   65.1301   33.9142 C   0  0  0  0  0  0  0  0  0  0  0  0
  109.2546   67.8491   32.4326 C   0  0  0  0  0  0  0  0  0  0  0  0
  112.2849   65.5061   39.2493 C   0  0  0  0  0  0  0  0  0  0  0  0
  110.7424   64.7159   37.0633 C   0  0  0  0  0  0  0  0  0  0  0  0
  109.8131   66.7391   33.2243 C   0  0  0  0  0  0  0  0  0  0  0  0
  113.1099   65.9291   40.4173 C   0  0  0  0  0  0  0  0  0  0  0  0
  109.9189   64.2922   35.8942 C   0  0  0  0  0  0  0  0  0  0  0  0
  110.1161   65.1732   34.7383 N   0  0  0  0  0  0  0  0  0  0  0  0
  110.9947   66.0787   32.9882 N   0  0  0  0  0  4  0  0  0  0  0  0
  108.3106   69.2283   30.4814 S   0  0  0  0  0  0  0  0  0  0  0  0
  111.8304   63.5606   40.0851 H   0  0  0  0  0  0  0  0  0  0  0  0
  112.5765   67.3680   38.1824 H   0  0  0  0  0  0  0  0  0  0  0  0
  110.4508   62.8540   38.1302 H   0  0  0  0  0  0  0  0  0  0  0  0
  111.1969   66.6614   36.2275 H   0  0  0  0  0  0  0  0  0  0  0  0
  109.1570   69.4311   34.0073 H   0  0  0  0  0  0  0  0  0  0  0  0
  108.3053   66.4453   34.8088 H   0  0  0  0  0  0  0  0  0  0  0  0
  108.1787   71.0370   32.2017 H   0  0  0  0  0  0  0  0  0  0  0  0
  109.0720   66.8476   30.4920 H   0  0  0  0  0  0  0  0  0  0  0  0
  112.0211   64.4394   33.9852 H   0  0  0  0  0  0  0  0  0  0  0  0
  112.5899   65.6625   41.3493 H   0  0  0  0  0  0  0  0  0  0  0  0
  114.0839   65.4192   40.3821 H   0  0  0  0  0  0  0  0  0  0  0  0
  113.2644   67.0176   40.3821 H   0  0  0  0  0  0  0  0  0  0  0  0
  110.2020   63.2673   35.6125 H   0  0  0  0  0  0  0  0  0  0  0  0
  108.8597   64.3450   36.1863 H   0  0  0  0  0  0  0  0  0  0  0  0
  111.6462   66.2829   32.2170 H   0  0  0  0  0  0  0  0  0  0  0  0
  1  3  2  0
  1 11  1  0
  2  4  1  0
  2 11  2  0
  3 12  1  0
  4 12  2  0
  5  7  2  0
  5 10  1  0
  6 13  2  0
  6 16  1  0
  7 18  1  0
  8 10  2  0
  8 18  1  0
  9 16  1  0
  9 17  2  0
 10 13  1  0
 11 14  1  0
 12 15  1  0
 13 17  1  0
 15 16  1  0
  1 19  1  0
  2 20  1  0
  3 21  1  0
  4 22  1  0
  5 23  1  0
  6 24  1  0
  7 25  1  0
  8 26  1  0
  9 27  1  0
 14 28  1  0
 14 29  1  0
 14 30  1  0
 15 31  1  0
 15 32  1  0
 17 33  1  0
M  CHG  1  17   1
M  END
>  <s_m_entry_id>  (133) 
21881

>  <s_m_Source_Path>  (133) 
C:\Users\vinicius\Downloads\Ligands_Ecoli

>  <s_m_Source_File>  (133) 
Ligands_Ecoli_o.sdf

>  <i_m_Source_File_Index>  (133) 
44

>  <i_f3d_flags>  (133) 
0

>  <r_lp_tautomer_probability>  (133) 
1

>  <r_epik_Ionization_Penalty>  (133) 
  0.8997

>  <r_epik_State_Penalty>  (133) 
  0.9395

>  <i_epik_Tot_Q>  (133) 
1

>  <s_m_job_name>  (133) 
ligs_ecFabI_ligprep_2

>  <class_value>  (133) 
0

>  <FRED Chemgauss4 score>  (133) 
-15.541283

>  <Name>  (133) 
CHEMBL64645

>  <Set>  (133) 
test

>  <HBA count>  (133) 
2

>  <HBD count>  (133) 
0

>  <ExactMolWt>  (133) 
255.09504590008999

>  <NumRotatableBounds>  (133) 
4

>  <FractionCsp3>  (133) 
0.13333333333333333

>  <TPSA>  (133) 
19.07

>  <LogP_WildmanCrippen>  (133) 
3.3874200000000023

>  <General_Cluster>  (133) 
2

>  <Biological_Cluster>  (133) 
2

>  <Physicochemical_Cluster>  (133) 
6

>  <Structural_Cluster>  (133) 
1

$$$$
CHEMBL2178310
     RDKit          3D

 36 37  0  0  0  0  0  0  0  0999 V2000
  108.9473   66.4313   34.0429 C   0  0  0  0  0  0  0  0  0  0  0  0
  109.2627   65.5163   35.0472 C   0  0  0  0  0  0  0  0  0  0  0  0
  111.5934   65.5470   37.4889 C   0  0  0  0  0  0  0  0  0  0  0  0
  110.2662   63.7046   38.3142 C   0  0  0  0  0  0  0  0  0  0  0  0
  111.7187   66.0388   38.7882 C   0  0  0  0  0  0  0  0  0  0  0  0
  110.3915   64.1963   39.6135 C   0  0  0  0  0  0  0  0  0  0  0  0
  110.9994   65.8778   32.8941 C   0  0  0  0  0  0  0  0  0  0  0  0
  109.8157   66.6120   32.9662 C   0  0  0  0  0  0  0  0  0  0  0  0
  110.8671   64.3799   37.2519 C   0  0  0  0  0  0  0  0  0  0  0  0
  110.4465   64.7821   34.9751 C   0  0  0  0  0  0  0  0  0  0  0  0
  111.3149   64.9628   33.8986 C   0  0  0  0  0  0  0  0  0  0  0  0
  111.1178   65.3634   39.8505 C   0  0  0  0  0  0  0  0  0  0  0  0
  110.0193   68.9853   32.1833 C   0  0  0  0  0  0  0  0  0  0  0  0
  109.8815   67.0688   41.6717 C   0  0  0  0  0  0  0  0  0  0  0  0
  109.4773   67.5885   31.8910 C   0  0  0  0  0  0  0  0  0  0  0  0
  111.1017   64.8643   42.3970 O   0  0  0  0  0  0  0  0  0  0  0  0
  112.4719   66.8038   41.5562 O   0  0  0  0  0  0  0  0  0  0  0  0
  112.4743   64.2521   33.8176 O   0  0  0  0  0  0  0  0  0  0  0  0
  110.7431   63.8916   35.9627 O   0  0  0  0  0  0  0  0  0  0  0  0
  111.2738   65.9794   41.4770 S   0  0  0  0  0  6  0  0  0  0  0  0
  108.0138   67.0104   34.0998 H   0  0  0  0  0  0  0  0  0  0  0  0
  108.5779   65.3737   35.8961 H   0  0  0  0  0  0  0  0  0  0  0  0
  112.0673   66.0795   36.6512 H   0  0  0  0  0  0  0  0  0  0  0  0
  109.6935   62.7842   38.1273 H   0  0  0  0  0  0  0  0  0  0  0  0
  112.2914   66.9592   38.9751 H   0  0  0  0  0  0  0  0  0  0  0  0
  109.9176   63.6637   40.4512 H   0  0  0  0  0  0  0  0  0  0  0  0
  111.6841   66.0203   32.0451 H   0  0  0  0  0  0  0  0  0  0  0  0
  110.0776   69.1357   33.2714 H   0  0  0  0  0  0  0  0  0  0  0  0
  111.0227   69.0885   31.7446 H   0  0  0  0  0  0  0  0  0  0  0  0
  109.3481   69.7383   31.7446 H   0  0  0  0  0  0  0  0  0  0  0  0
  109.6839   67.2234   42.7427 H   0  0  0  0  0  0  0  0  0  0  0  0
  110.1032   68.0357   41.1964 H   0  0  0  0  0  0  0  0  0  0  0  0
  108.9963   66.6210   41.1964 H   0  0  0  0  0  0  0  0  0  0  0  0
  109.9077   67.2336   30.9430 H   0  0  0  0  0  0  0  0  0  0  0  0
  108.3810   67.6588   31.8340 H   0  0  0  0  0  0  0  0  0  0  0  0
  112.7061   63.6006   34.5261 H   0  0  0  0  0  0  0  0  0  0  0  0
  1  2  2  0
  1  8  1  0
  2 10  1  0
  3  5  2  0
  3  9  1  0
  4  6  1  0
  4  9  2  0
  5 12  1  0
  6 12  2  0
  7  8  2  0
  7 11  1  0
  8 15  1  0
  9 19  1  0
 10 11  2  0
 10 19  1  0
 11 18  1  0
 12 20  1  0
 13 15  1  0
 14 20  1  0
 16 20  2  0
 17 20  2  0
  1 21  1  0
  2 22  1  0
  3 23  1  0
  4 24  1  0
  5 25  1  0
  6 26  1  0
  7 27  1  0
 13 28  1  0
 13 29  1  0
 13 30  1  0
 14 31  1  0
 14 32  1  0
 14 33  1  0
 15 34  1  0
 15 35  1  0
 18 36  1  0
M  END
>  <s_m_entry_id>  (134) 
22015

>  <s_m_Source_Path>  (134) 
C:\Users\vinicius\Downloads\Ligands_Ecoli

>  <s_m_Source_File>  (134) 
Ligands_Ecoli_o.sdf

>  <i_m_Source_File_Index>  (134) 
108

>  <i_f3d_flags>  (134) 
0

>  <r_lp_tautomer_probability>  (134) 
1

>  <r_epik_Ionization_Penalty>  (134) 
  0.0039

>  <r_epik_State_Penalty>  (134) 
  0.0028

>  <i_epik_Tot_Q>  (134) 
0

>  <s_m_job_name>  (134) 
ligs_ecFabI_ligprep_2

>  <class_value>  (134) 
1

>  <FRED Chemgauss4 score>  (134) 
-15.943926

>  <Name>  (134) 
CHEMBL2178310

>  <Set>  (134) 
test

>  <HBA count>  (134) 
4

>  <HBD count>  (134) 
1

>  <ExactMolWt>  (134) 
292.0769299920005

>  <NumRotatableBounds>  (134) 
7

>  <FractionCsp3>  (134) 
0.2

>  <TPSA>  (134) 
63.60000000000001

>  <LogP_WildmanCrippen>  (134) 
3.1504000000000016

>  <General_Cluster>  (134) 
4

>  <Biological_Cluster>  (134) 
1

>  <Physicochemical_Cluster>  (134) 
3

>  <Structural_Cluster>  (134) 
3

$$$$
CHEMBL2178299
     RDKit          3D

 41 43  0  0  0  0  0  0  0  0999 V2000
  112.2910   66.5564   38.7957 C   0  0  0  0  0  0  0  0  0  0  0  0
  110.8136   65.9501   33.0101 C   0  0  0  0  0  0  0  0  0  0  0  0
  112.3040   66.0357   37.5018 C   0  0  0  0  0  0  0  0  0  0  0  0
  111.6722   65.3698   33.9438 C   0  0  0  0  0  0  0  0  0  0  0  0
  111.6492   64.3934   39.6598 C   0  0  0  0  0  0  0  0  0  0  0  0
  108.9159   65.3364   34.3737 C   0  0  0  0  0  0  0  0  0  0  0  0
  111.9636   65.7353   39.8747 C   0  0  0  0  0  0  0  0  0  0  0  0
  109.4354   65.9334   33.2251 C   0  0  0  0  0  0  0  0  0  0  0  0
  111.9896   64.6938   37.2868 C   0  0  0  0  0  0  0  0  0  0  0  0
  111.1526   64.7728   35.0924 C   0  0  0  0  0  0  0  0  0  0  0  0
  111.6622   63.8727   38.3658 C   0  0  0  0  0  0  0  0  0  0  0  0
  109.7745   64.7561   35.3074 C   0  0  0  0  0  0  0  0  0  0  0  0
  109.6606   70.3041   31.6204 C   0  0  0  0  0  0  0  0  0  0  0  0
  110.6661   69.3427   32.1908 C   0  0  0  0  0  0  0  0  0  0  0  0
  109.5327   68.8355   31.3521 C   0  0  0  0  0  0  0  0  0  0  0  0
  110.5864   66.8507   41.6483 C   0  0  0  0  0  0  0  0  0  0  0  0
  111.9522   66.2913   41.2585 C   0  0  0  0  0  0  0  0  0  0  0  0
  108.6064   66.4942   32.3235 N   0  0  0  0  0  2  0  0  0  0  0  0
  108.3411   68.6901   33.6755 O   0  0  0  0  0  0  0  0  0  0  0  0
  106.9722   68.3837   31.6316 O   0  0  0  0  0  0  0  0  0  0  0  0
  111.3525   62.5609   38.1683 O   0  0  0  0  0  0  0  0  0  0  0  0
  112.0058   64.1974   36.0181 O   0  0  0  0  0  0  0  0  0  0  0  0
  109.2692   64.1844   36.4093 F   0  0  0  0  0  0  0  0  0  0  0  0
  108.1624   68.0197   32.3923 S   0  0  0  0  0  6  0  0  0  0  0  0
  112.5389   67.6146   38.9652 H   0  0  0  0  0  0  0  0  0  0  0  0
  111.2233   66.4209   32.1043 H   0  0  0  0  0  0  0  0  0  0  0  0
  112.5622   66.6833   36.6509 H   0  0  0  0  0  0  0  0  0  0  0  0
  112.7590   65.3830   33.7743 H   0  0  0  0  0  0  0  0  0  0  0  0
  111.3910   63.7459   40.5107 H   0  0  0  0  0  0  0  0  0  0  0  0
  107.8291   65.3232   34.5432 H   0  0  0  0  0  0  0  0  0  0  0  0
  108.9419   70.8069   32.2842 H   0  0  0  0  0  0  0  0  0  0  0  0
  109.7150   71.2078   30.9956 H   0  0  0  0  0  0  0  0  0  0  0  0
  111.6933   69.3231   31.7977 H   0  0  0  0  0  0  0  0  0  0  0  0
  111.0481   69.1226   33.1986 H   0  0  0  0  0  0  0  0  0  0  0  0
  109.4471   68.2110   30.4506 H   0  0  0  0  0  0  0  0  0  0  0  0
  110.5034   66.8847   42.7446 H   0  0  0  0  0  0  0  0  0  0  0  0
  110.4762   67.8664   41.2406 H   0  0  0  0  0  0  0  0  0  0  0  0
  109.7954   66.2041   41.2406 H   0  0  0  0  0  0  0  0  0  0  0  0
  112.2205   65.4906   41.9634 H   0  0  0  0  0  0  0  0  0  0  0  0
  112.6766   67.1183   41.2942 H   0  0  0  0  0  0  0  0  0  0  0  0
  111.3592   62.1830   37.2533 H   0  0  0  0  0  0  0  0  0  0  0  0
  1  3  2  0
  1  7  1  0
  2  4  2  0
  2  8  1  0
  3  9  1  0
  4 10  1  0
  5  7  2  0
  5 11  1  0
  6  8  2  0
  6 12  1  0
  7 17  1  0
  8 18  1  0
  9 11  2  0
  9 22  1  0
 10 12  2  0
 10 22  1  0
 11 21  1  0
 12 23  1  0
 13 14  1  0
 13 15  1  0
 14 15  1  0
 15 24  1  0
 16 17  1  0
 18 24  1  0
 19 24  2  0
 20 24  2  0
  1 25  1  0
  2 26  1  0
  3 27  1  0
  4 28  1  0
  5 29  1  0
  6 30  1  0
 13 31  1  0
 13 32  1  0
 14 33  1  0
 14 34  1  0
 15 35  1  0
 16 36  1  0
 16 37  1  0
 16 38  1  0
 17 39  1  0
 17 40  1  0
 21 41  1  0
M  CHG  1  18  -1
M  END
>  <s_m_entry_id>  (135) 
22022

>  <s_m_Source_Path>  (135) 
C:\Users\vinicius\Downloads\Ligands_Ecoli

>  <s_m_Source_File>  (135) 
Ligands_Ecoli_o.sdf

>  <i_m_Source_File_Index>  (135) 
113

>  <i_f3d_flags>  (135) 
0

>  <r_lp_tautomer_probability>  (135) 
1

>  <r_epik_Ionization_Penalty>  (135) 
  0.7133

>  <r_epik_State_Penalty>  (135) 
  0.6325

>  <i_epik_Tot_Q>  (135) 
-1

>  <s_m_job_name>  (135) 
ligs_ecFabI_ligprep_2

>  <class_value>  (135) 
0

>  <FRED Chemgauss4 score>  (135) 
-16.061020

>  <Name>  (135) 
CHEMBL2178299

>  <Set>  (135) 
test

>  <HBA count>  (135) 
4

>  <HBD count>  (135) 
1

>  <ExactMolWt>  (135) 
350.08678082391043

>  <NumRotatableBounds>  (135) 
8

>  <FractionCsp3>  (135) 
0.29411764705882354

>  <TPSA>  (135) 
77.7

>  <LogP_WildmanCrippen>  (135) 
4.3834000000000035

>  <General_Cluster>  (135) 
1

>  <Biological_Cluster>  (135) 
2

>  <Physicochemical_Cluster>  (135) 
3

>  <Structural_Cluster>  (135) 
6

$$$$
CHEMBL304015
     RDKit          3D

 36 38  0  0  0  0  0  0  0  0999 V2000
  107.6098   68.6108   32.2122 C   0  0  0  0  0  0  0  0  0  0  0  0
  107.7090   67.2528   31.9095 C   0  0  0  0  0  0  0  0  0  0  0  0
  108.7410   69.3197   32.6164 C   0  0  0  0  0  0  0  0  0  0  0  0
  111.6955   66.1517   37.9521 C   0  0  0  0  0  0  0  0  0  0  0  0
  110.8956   63.8755   37.8263 C   0  0  0  0  0  0  0  0  0  0  0  0
  108.9394   66.6037   32.0113 C   0  0  0  0  0  0  0  0  0  0  0  0
  109.9715   68.6706   32.7182 C   0  0  0  0  0  0  0  0  0  0  0  0
  111.5989   66.1088   39.3430 C   0  0  0  0  0  0  0  0  0  0  0  0
  110.7990   63.8325   39.2172 C   0  0  0  0  0  0  0  0  0  0  0  0
  111.2890   66.2115   34.9978 C   0  0  0  0  0  0  0  0  0  0  0  0
  111.7102   64.4466   33.7472 C   0  0  0  0  0  0  0  0  0  0  0  0
  111.3438   65.0350   37.1938 C   0  0  0  0  0  0  0  0  0  0  0  0
  110.0707   67.3126   32.4156 C   0  0  0  0  0  0  0  0  0  0  0  0
  111.1507   64.9492   39.9755 C   0  0  0  0  0  0  0  0  0  0  0  0
  111.4426   65.0788   35.7619 C   0  0  0  0  0  0  0  0  0  0  0  0
  111.4322   66.0837   42.0466 C   0  0  0  0  0  0  0  0  0  0  0  0
  111.3984   66.6129   32.5258 C   0  0  0  0  0  0  0  0  0  0  0  0
  111.7049   63.9836   34.9775 N   0  0  0  0  0  0  0  0  0  0  0  0
  111.4637   65.7908   33.7095 N   0  0  0  0  0  0  0  0  0  0  0  0
  111.0565   64.9070   41.3327 O   0  0  0  0  0  0  0  0  0  0  0  0
  106.6395   69.1227   32.1321 H   0  0  0  0  0  0  0  0  0  0  0  0
  106.8169   66.6938   31.5905 H   0  0  0  0  0  0  0  0  0  0  0  0
  108.6628   70.3907   32.8549 H   0  0  0  0  0  0  0  0  0  0  0  0
  112.0490   67.0661   37.4533 H   0  0  0  0  0  0  0  0  0  0  0  0
  110.6183   62.9949   37.2283 H   0  0  0  0  0  0  0  0  0  0  0  0
  109.0176   65.5327   31.7728 H   0  0  0  0  0  0  0  0  0  0  0  0
  110.8636   69.2297   33.0371 H   0  0  0  0  0  0  0  0  0  0  0  0
  111.8762   66.9894   39.9410 H   0  0  0  0  0  0  0  0  0  0  0  0
  110.4455   62.9180   39.7160 H   0  0  0  0  0  0  0  0  0  0  0  0
  111.0730   67.2320   35.3468 H   0  0  0  0  0  0  0  0  0  0  0  0
  111.8910   63.8276   32.8561 H   0  0  0  0  0  0  0  0  0  0  0  0
  111.3709   65.8918   43.1280 H   0  0  0  0  0  0  0  0  0  0  0  0
  112.4633   66.3601   41.7811 H   0  0  0  0  0  0  0  0  0  0  0  0
  110.7521   66.9065   41.7811 H   0  0  0  0  0  0  0  0  0  0  0  0
  111.5423   65.9768   31.6400 H   0  0  0  0  0  0  0  0  0  0  0  0
  112.1877   67.3764   32.5907 H   0  0  0  0  0  0  0  0  0  0  0  0
  1  2  2  0
  1  3  1  0
  2  6  1  0
  3  7  2  0
  4  8  2  0
  4 12  1  0
  5  9  1  0
  5 12  2  0
  6 13  2  0
  7 13  1  0
  8 14  1  0
  9 14  2  0
 10 15  2  0
 10 19  1  0
 11 18  2  0
 11 19  1  0
 12 15  1  0
 13 17  1  0
 14 20  1  0
 15 18  1  0
 16 20  1  0
 17 19  1  0
  1 21  1  0
  2 22  1  0
  3 23  1  0
  4 24  1  0
  5 25  1  0
  6 26  1  0
  7 27  1  0
  8 28  1  0
  9 29  1  0
 10 30  1  0
 11 31  1  0
 16 32  1  0
 16 33  1  0
 16 34  1  0
 17 35  1  0
 17 36  1  0
M  END
>  <s_m_entry_id>  (136) 
21858

>  <s_m_Source_Path>  (136) 
C:\Users\vinicius\Downloads\Ligands_Ecoli

>  <s_m_Source_File>  (136) 
Ligands_Ecoli_o.sdf

>  <i_m_Source_File_Index>  (136) 
33

>  <i_f3d_flags>  (136) 
0

>  <r_lp_tautomer_probability>  (136) 
1

>  <r_epik_Ionization_Penalty>  (136) 
  0.0340

>  <r_epik_State_Penalty>  (136) 
  0.0282

>  <i_epik_Tot_Q>  (136) 
0

>  <s_m_job_name>  (136) 
ligs_ecFabI_ligprep_2

>  <class_value>  (136) 
0

>  <FRED Chemgauss4 score>  (136) 
-16.263687

>  <Name>  (136) 
CHEMBL304015

>  <Set>  (136) 
test

>  <HBA count>  (136) 
3

>  <HBD count>  (136) 
0

>  <ExactMolWt>  (136) 
264.12626313200025

>  <NumRotatableBounds>  (136) 
5

>  <FractionCsp3>  (136) 
0.11764705882352941

>  <TPSA>  (136) 
27.05

>  <LogP_WildmanCrippen>  (136) 
3.607000000000002

>  <General_Cluster>  (136) 
2

>  <Biological_Cluster>  (136) 
2

>  <Physicochemical_Cluster>  (136) 
6

>  <Structural_Cluster>  (136) 
3

$$$$
CHEMBL2178325
     RDKit          3D

 30 31  0  0  1  0  0  0  0  0999 V2000
  112.0141   66.2743   38.4836 C   0  0  0  0  0  0  0  0  0  0  0  0
  110.4096   67.3190   32.8007 C   0  0  0  0  0  0  0  0  0  0  0  0
  111.3605   66.5874   33.5120 C   0  0  0  0  0  0  0  0  0  0  0  0
  112.0362   66.2201   37.0944 C   0  0  0  0  0  0  0  0  0  0  0  0
  111.8300   65.1071   39.2165 C   0  0  0  0  0  0  0  0  0  0  0  0
  108.6426   66.0977   33.9067 C   0  0  0  0  0  0  0  0  0  0  0  0
  109.0506   67.0742   32.9980 C   0  0  0  0  0  0  0  0  0  0  0  0
  110.9526   65.6109   34.4207 C   0  0  0  0  0  0  0  0  0  0  0  0
  109.5936   65.3661   34.6181 C   0  0  0  0  0  0  0  0  0  0  0  0
  111.8710   64.9838   36.4909 C   0  0  0  0  0  0  0  0  0  0  0  0
  111.6739   63.9207   38.5180 C   0  0  0  0  0  0  0  0  0  0  0  0
  108.0337   67.8581   32.2394 C   0  0  1  0  0  0  0  0  0  0  0  0
  108.6397   68.8885   31.2916 C   0  0  0  0  0  0  0  0  0  0  0  0
  111.6897   63.8286   37.1693 N   0  0  0  0  0  0  0  0  0  0  0  0
  109.1830   64.4144   35.5022 O   0  0  0  0  0  0  0  0  0  0  0  0
  107.1388   67.0212   31.4915 O   0  0  0  0  0  0  0  0  0  0  0  0
  111.8913   64.9032   35.1092 O   0  0  0  0  0  0  0  0  0  0  0  0
  111.4969   62.7865   39.2130 F   0  0  0  0  0  0  0  0  0  0  0  0
  109.3657   69.8035   31.9709 F   0  0  0  0  0  0  0  0  0  0  0  0
  107.6744   69.5585   30.6216 F   0  0  0  0  0  0  0  0  0  0  0  0
  109.4474   68.3138   30.3757 F   0  0  0  0  0  0  0  0  0  0  0  0
  112.1417   67.2367   39.0008 H   0  0  0  0  0  0  0  0  0  0  0  0
  110.7314   68.0891   32.0841 H   0  0  0  0  0  0  0  0  0  0  0  0
  112.4322   66.7805   33.3564 H   0  0  0  0  0  0  0  0  0  0  0  0
  112.1803   67.1301   36.4934 H   0  0  0  0  0  0  0  0  0  0  0  0
  111.8089   65.1250   40.3162 H   0  0  0  0  0  0  0  0  0  0  0  0
  107.5709   65.9046   34.0623 H   0  0  0  0  0  0  0  0  0  0  0  0
  107.4721   68.3920   33.0202 H   0  0  0  0  0  0  0  0  0  0  0  0
  109.8512   63.8905   36.0113 H   0  0  0  0  0  0  0  0  0  0  0  0
  106.5779   66.4966   32.1163 H   0  0  0  0  0  0  0  0  0  0  0  0
  1  4  2  0
  1  5  1  0
  2  3  2  0
  2  7  1  0
  3  8  1  0
  4 10  1  0
  5 11  2  0
  6  7  2  0
  6  9  1  0
  7 12  1  0
  8  9  2  0
  8 17  1  0
  9 15  1  0
 10 14  2  0
 10 17  1  0
 11 14  1  0
 11 18  1  0
 12 13  1  0
 12 16  1  0
 13 19  1  0
 13 20  1  0
 13 21  1  0
  1 22  1  0
  2 23  1  0
  3 24  1  0
  4 25  1  0
  5 26  1  0
  6 27  1  0
 12 28  1  1
 15 29  1  0
 16 30  1  0
M  END
>  <s_m_entry_id>  (137) 
21799

>  <s_m_Source_Path>  (137) 
C:\Users\vinicius\Downloads\Ligands_Ecoli

>  <s_m_Source_File>  (137) 
Ligands_Ecoli_o_stereoinespecific.sdf

>  <i_m_Source_File_Index>  (137) 
1

>  <i_f3d_flags>  (137) 
0

>  <r_lp_tautomer_probability>  (137) 
1

>  <r_epik_Ionization_Penalty>  (137) 
  0.0065

>  <r_epik_State_Penalty>  (137) 
  0.0048

>  <i_epik_Tot_Q>  (137) 
0

>  <s_m_job_name>  (137) 
ligs_ecFabI_ligprep_2

>  <class_value>  (137) 
0

>  <FRED Chemgauss4 score>  (137) 
-17.309393

>  <Name>  (137) 
CHEMBL2178325

>  <Set>  (137) 
test

>  <HBA count>  (137) 
4

>  <HBD count>  (137) 
2

>  <ExactMolWt>  (137) 
303.05185602800026

>  <NumRotatableBounds>  (137) 
5

>  <FractionCsp3>  (137) 
0.15384615384615385

>  <TPSA>  (137) 
62.58000000000001

>  <LogP_WildmanCrippen>  (137) 
3.314300000000001

>  <General_Cluster>  (137) 
3

>  <Biological_Cluster>  (137) 
2

>  <Physicochemical_Cluster>  (137) 
9

>  <Structural_Cluster>  (137) 
3

$$$$
CHEMBL72164
     RDKit          3D

 53 57  0  0  0  0  0  0  0  0999 V2000
  110.0052   68.7324   42.4664 C   0  0  0  0  0  0  0  0  0  0  0  0
  108.9873   68.1028   43.1794 C   0  0  0  0  0  0  0  0  0  0  0  0
  110.4777   68.1927   41.2648 C   0  0  0  0  0  0  0  0  0  0  0  0
  109.3760   63.1010   44.3127 C   0  0  0  0  0  0  0  0  0  0  0  0
  107.0078   62.9189   44.7545 C   0  0  0  0  0  0  0  0  0  0  0  0
  109.7360   66.1815   35.0823 C   0  0  0  0  0  0  0  0  0  0  0  0
  110.9483   64.3203   34.1319 C   0  0  0  0  0  0  0  0  0  0  0  0
  109.1001   63.6110   43.0440 C   0  0  0  0  0  0  0  0  0  0  0  0
  106.7318   63.4289   43.4859 C   0  0  0  0  0  0  0  0  0  0  0  0
  108.4099   66.9173   42.7163 C   0  0  0  0  0  0  0  0  0  0  0  0
  110.1876   67.0030   34.0494 C   0  0  0  0  0  0  0  0  0  0  0  0
  111.3998   65.1418   33.0990 C   0  0  0  0  0  0  0  0  0  0  0  0
  109.9124   66.9975   40.7769 C   0  0  0  0  0  0  0  0  0  0  0  0
  110.1164   64.8401   35.1236 C   0  0  0  0  0  0  0  0  0  0  0  0
  108.3298   62.7549   45.1679 C   0  0  0  0  0  0  0  0  0  0  0  0
  110.1336   66.1868   39.6306 C   0  0  0  0  0  0  0  0  0  0  0  0
  107.7781   63.7750   42.6306 C   0  0  0  0  0  0  0  0  0  0  0  0
  108.8907   66.3874   41.5134 C   0  0  0  0  0  0  0  0  0  0  0  0
  111.0194   66.4832   33.0577 C   0  0  0  0  0  0  0  0  0  0  0  0
  109.2548   65.1261   39.6932 C   0  0  0  0  0  0  0  0  0  0  0  0
  109.6403   63.9737   36.2125 C   0  0  0  0  0  0  0  0  0  0  0  0
  108.6216   62.2163   46.5061 C   0  0  0  0  0  0  0  0  0  0  0  0
  111.0820   66.3387   38.4941 C   0  0  0  0  0  0  0  0  0  0  0  0
  109.1299   64.0172   38.7117 C   0  0  0  0  0  0  0  0  0  0  0  0
  111.2685   64.9860   37.7857 C   0  0  0  0  0  0  0  0  0  0  0  0
  107.4816   64.3281   41.2629 C   0  0  0  0  0  0  0  0  0  0  0  0
  108.5110   65.2503   40.8314 N   0  0  0  0  0  0  0  0  0  0  0  0
  109.9735   64.3203   37.5273 N   0  0  0  0  0  0  0  0  0  0  0  0
  107.6379   61.9047   47.2768 O   0  0  0  0  0  1  0  0  0  0  0  0
  108.9690   62.9980   35.8793 O   0  0  0  0  0  0  0  0  0  0  0  0
  109.8510   62.0745   46.8627 O   0  0  0  0  0  0  0  0  0  0  0  0
  111.4603   67.2845   32.0499 O   0  0  0  0  0  0  0  0  0  0  0  0
  110.4427   69.6649   42.8525 H   0  0  0  0  0  0  0  0  0  0  0  0
  108.6325   68.5457   44.1217 H   0  0  0  0  0  0  0  0  0  0  0  0
  111.2815   68.6958   40.7073 H   0  0  0  0  0  0  0  0  0  0  0  0
  110.4186   62.9718   44.6387 H   0  0  0  0  0  0  0  0  0  0  0  0
  106.1828   62.6460   45.4290 H   0  0  0  0  0  0  0  0  0  0  0  0
  109.0799   66.5915   35.8643 H   0  0  0  0  0  0  0  0  0  0  0  0
  111.2483   63.2625   34.1644 H   0  0  0  0  0  0  0  0  0  0  0  0
  109.9251   63.8838   42.3696 H   0  0  0  0  0  0  0  0  0  0  0  0
  105.6892   63.5582   43.1599 H   0  0  0  0  0  0  0  0  0  0  0  0
  107.6060   66.4183   43.2774 H   0  0  0  0  0  0  0  0  0  0  0  0
  109.8877   68.0608   34.0169 H   0  0  0  0  0  0  0  0  0  0  0  0
  112.0558   64.7318   32.3170 H   0  0  0  0  0  0  0  0  0  0  0  0
  110.6810   67.0727   37.7796 H   0  0  0  0  0  0  0  0  0  0  0  0
  112.0536   66.6853   38.8761 H   0  0  0  0  0  0  0  0  0  0  0  0
  109.4665   63.0771   39.1730 H   0  0  0  0  0  0  0  0  0  0  0  0
  108.0796   63.9124   38.4020 H   0  0  0  0  0  0  0  0  0  0  0  0
  111.7807   65.1535   36.8268 H   0  0  0  0  0  0  0  0  0  0  0  0
  111.8638   64.3345   38.4423 H   0  0  0  0  0  0  0  0  0  0  0  0
  107.4227   63.4963   40.5455 H   0  0  0  0  0  0  0  0  0  0  0  0
  106.5267   64.8721   41.3091 H   0  0  0  0  0  0  0  0  0  0  0  0
  112.0507   66.9153   31.3462 H   0  0  0  0  0  0  0  0  0  0  0  0
  1  2  2  0
  1  3  1  0
  2 10  1  0
  3 13  2  0
  4  8  2  0
  4 15  1  0
  5  9  1  0
  5 15  2  0
  6 11  2  0
  6 14  1  0
  7 12  1  0
  7 14  2  0
  8 17  1  0
  9 17  2  0
 10 18  2  0
 11 19  1  0
 12 19  2  0
 13 16  1  0
 13 18  1  0
 14 21  1  0
 15 22  1  0
 16 20  2  0
 16 23  1  0
 17 26  1  0
 18 27  1  0
 19 32  1  0
 20 24  1  0
 20 27  1  0
 21 28  1  0
 21 30  2  0
 22 29  1  0
 22 31  2  0
 23 25  1  0
 24 28  1  0
 25 28  1  0
 26 27  1  0
  1 33  1  0
  2 34  1  0
  3 35  1  0
  4 36  1  0
  5 37  1  0
  6 38  1  0
  7 39  1  0
  8 40  1  0
  9 41  1  0
 10 42  1  0
 11 43  1  0
 12 44  1  0
 23 45  1  0
 23 46  1  0
 24 47  1  0
 24 48  1  0
 25 49  1  0
 25 50  1  0
 26 51  1  0
 26 52  1  0
 32 53  1  0
M  CHG  1  29  -1
M  END
>  <s_m_entry_id>  (138) 
21834

>  <s_m_Source_Path>  (138) 
C:\Users\vinicius\Downloads\Ligands_Ecoli

>  <s_m_Source_File>  (138) 
Ligands_Ecoli_o.sdf

>  <i_m_Source_File_Index>  (138) 
19

>  <i_f3d_flags>  (138) 
0

>  <r_lp_tautomer_probability>  (138) 
0.999999999997365

>  <r_epik_Ionization_Penalty>  (138) 
  0.0362

>  <r_epik_State_Penalty>  (138) 
  0.0299

>  <i_epik_Tot_Q>  (138) 
-1

>  <s_m_job_name>  (138) 
ligs_ecFabI_ligprep_2

>  <class_value>  (138) 
0

>  <FRED Chemgauss4 score>  (138) 
-12.515751

>  <Name>  (138) 
CHEMBL72164

>  <Set>  (138) 
test

>  <HBA count>  (138) 
5

>  <HBD count>  (138) 
1

>  <ExactMolWt>  (138) 
425.15068073191054

>  <NumRotatableBounds>  (138) 
5

>  <FractionCsp3>  (138) 
0.15384615384615385

>  <TPSA>  (138) 
85.60000000000001

>  <LogP_WildmanCrippen>  (138) 
2.9572000000000016

>  <General_Cluster>  (138) 
1

>  <Biological_Cluster>  (138) 
2

>  <Physicochemical_Cluster>  (138) 
3

>  <Structural_Cluster>  (138) 
7

$$$$
CHEMBL50
     RDKit          3D

 31 33  0  0  0  0  0  0  0  0999 V2000
  111.1480   68.0631   33.2126 C   0  0  0  0  0  0  0  0  0  0  0  0
  110.6632   68.8179   32.1445 C   0  0  0  0  0  0  0  0  0  0  0  0
  109.1968   66.6432   33.0950 C   0  0  0  0  0  0  0  0  0  0  0  0
  110.4405   66.5414   38.3775 C   0  0  0  0  0  0  0  0  0  0  0  0
  111.6479   64.8097   39.5501 C   0  0  0  0  0  0  0  0  0  0  0  0
  110.4148   66.9757   33.6878 C   0  0  0  0  0  0  0  0  0  0  0  0
  111.7148   64.9118   37.1367 C   0  0  0  0  0  0  0  0  0  0  0  0
  110.8914   66.0274   37.1609 C   0  0  0  0  0  0  0  0  0  0  0  0
  109.4451   68.4854   31.5517 C   0  0  0  0  0  0  0  0  0  0  0  0
  108.7119   67.3981   32.0269 C   0  0  0  0  0  0  0  0  0  0  0  0
  110.8197   65.9313   39.5727 C   0  0  0  0  0  0  0  0  0  0  0  0
  112.0979   64.2966   38.3328 C   0  0  0  0  0  0  0  0  0  0  0  0
  110.9235   66.1848   34.8033 C   0  0  0  0  0  0  0  0  0  0  0  0
  112.1722   64.3924   35.8384 C   0  0  0  0  0  0  0  0  0  0  0  0
  111.7194   65.1073   34.5847 C   0  0  0  0  0  0  0  0  0  0  0  0
  112.1508   64.6047   33.5078 O   0  0  0  0  0  1  0  0  0  0  0  0
  112.9005   63.4052   35.7845 O   0  0  0  0  0  0  0  0  0  0  0  0
  110.4894   66.6642   36.0232 O   0  0  0  0  0  0  0  0  0  0  0  0
  108.9828   69.2307   30.5094 O   0  0  0  0  0  0  0  0  0  0  0  0
  107.5207   67.0649   31.4561 O   0  0  0  0  0  0  0  0  0  0  0  0
  110.3813   66.4300   40.7607 O   0  0  0  0  0  0  0  0  0  0  0  0
  112.9051   63.1995   38.3730 O   0  0  0  0  0  0  0  0  0  0  0  0
  112.1085   68.3253   33.6802 H   0  0  0  0  0  0  0  0  0  0  0  0
  111.2414   69.6753   31.7697 H   0  0  0  0  0  0  0  0  0  0  0  0
  108.6186   65.7857   33.4698 H   0  0  0  0  0  0  0  0  0  0  0  0
  109.7872   67.4262   38.3936 H   0  0  0  0  0  0  0  0  0  0  0  0
  111.9469   64.3287   40.4931 H   0  0  0  0  0  0  0  0  0  0  0  0
  108.1194   69.0024   30.0822 H   0  0  0  0  0  0  0  0  0  0  0  0
  107.1696   67.5956   30.6977 H   0  0  0  0  0  0  0  0  0  0  0  0
  110.6507   65.9967   41.6091 H   0  0  0  0  0  0  0  0  0  0  0  0
  113.2459   62.8046   37.5316 H   0  0  0  0  0  0  0  0  0  0  0  0
  1  2  2  0
  1  6  1  0
  2  9  1  0
  3  6  2  0
  3 10  1  0
  4  8  2  0
  4 11  1  0
  5 11  2  0
  5 12  1  0
  6 13  1  0
  7  8  1  0
  7 12  2  0
  7 14  1  0
  8 18  1  0
  9 10  2  0
  9 19  1  0
 10 20  1  0
 11 21  1  0
 12 22  1  0
 13 15  2  0
 13 18  1  0
 14 15  1  0
 14 17  2  0
 15 16  1  0
  1 23  1  0
  2 24  1  0
  3 25  1  0
  4 26  1  0
  5 27  1  0
 19 28  1  0
 20 29  1  0
 21 30  1  0
 22 31  1  0
M  CHG  1  16  -1
M  END
>  <s_m_entry_id>  (139) 
21956

>  <s_m_Source_Path>  (139) 
C:\Users\vinicius\Downloads\Ligands_Ecoli

>  <s_m_Source_File>  (139) 
Ligands_Ecoli_o.sdf

>  <i_m_Source_File_Index>  (139) 
78

>  <i_f3d_flags>  (139) 
0

>  <r_epik_Ionization_Penalty>  (139) 
  2.4190

>  <r_epik_State_Penalty>  (139) 
  2.5948

>  <i_epik_Tot_Q>  (139) 
-1

>  <s_m_job_name>  (139) 
ligs_ecFabI_ligprep_2

>  <class_value>  (139) 
0

>  <FRED Chemgauss4 score>  (139) 
-14.918713

>  <Name>  (139) 
CHEMBL50

>  <Set>  (139) 
test

>  <HBA count>  (139) 
7

>  <HBD count>  (139) 
4

>  <ExactMolWt>  (139) 
301.0353762079102

>  <NumRotatableBounds>  (139) 
5

>  <FractionCsp3>  (139) 
0.0

>  <TPSA>  (139) 
134.19

>  <LogP_WildmanCrippen>  (139) 
1.3559999999999999

>  <General_Cluster>  (139) 
2

>  <Biological_Cluster>  (139) 
2

>  <Physicochemical_Cluster>  (139) 
9

>  <Structural_Cluster>  (139) 
1

$$$$
CHEMBL70636
     RDKit          3D

 51 55  0  0  0  0  0  0  0  0999 V2000
  110.0632   66.0052   33.4721 C   0  0  0  0  0  0  0  0  0  0  0  0
  109.3767   69.3758   42.5697 C   0  0  0  0  0  0  0  0  0  0  0  0
  109.2979   66.0717   34.6363 C   0  0  0  0  0  0  0  0  0  0  0  0
  111.2884   65.3385   33.4801 C   0  0  0  0  0  0  0  0  0  0  0  0
  109.2611   68.4459   43.6007 C   0  0  0  0  0  0  0  0  0  0  0  0
  109.8773   68.9992   41.3183 C   0  0  0  0  0  0  0  0  0  0  0  0
  109.7577   65.4716   35.8085 C   0  0  0  0  0  0  0  0  0  0  0  0
  111.7483   64.7383   34.6523 C   0  0  0  0  0  0  0  0  0  0  0  0
  109.0186   62.6990   43.5648 C   0  0  0  0  0  0  0  0  0  0  0  0
  108.2147   64.1196   41.7836 C   0  0  0  0  0  0  0  0  0  0  0  0
  109.6403   67.1135   43.4155 C   0  0  0  0  0  0  0  0  0  0  0  0
  107.7510   62.1287   43.6820 C   0  0  0  0  0  0  0  0  0  0  0  0
  106.9472   63.5492   41.9007 C   0  0  0  0  0  0  0  0  0  0  0  0
  110.2674   67.6616   41.1064 C   0  0  0  0  0  0  0  0  0  0  0  0
  110.9829   64.8049   35.8165 C   0  0  0  0  0  0  0  0  0  0  0  0
  110.8015   66.9433   40.0023 C   0  0  0  0  0  0  0  0  0  0  0  0
  109.2504   63.6945   42.6156 C   0  0  0  0  0  0  0  0  0  0  0  0
  110.1391   66.7490   42.1596 C   0  0  0  0  0  0  0  0  0  0  0  0
  106.7154   62.5538   42.8500 C   0  0  0  0  0  0  0  0  0  0  0  0
  110.9773   65.6350   40.4008 C   0  0  0  0  0  0  0  0  0  0  0  0
  111.4677   64.1721   37.0526 C   0  0  0  0  0  0  0  0  0  0  0  0
  111.1398   67.3827   38.6216 C   0  0  0  0  0  0  0  0  0  0  0  0
  111.5190   64.5215   39.5791 C   0  0  0  0  0  0  0  0  0  0  0  0
  112.1136   66.3803   37.9787 C   0  0  0  0  0  0  0  0  0  0  0  0
  110.6180   64.3094   42.4886 C   0  0  0  0  0  0  0  0  0  0  0  0
  110.5799   65.5247   41.7025 N   0  0  0  0  0  0  0  0  0  0  0  0
  111.6700   64.9833   38.1754 N   0  0  0  0  0  0  0  0  0  0  0  0
  111.6554   62.9571   37.0060 O   0  0  0  0  0  0  0  0  0  0  0  0
  105.4789   61.9962   42.9636 O   0  0  0  0  0  0  0  0  0  0  0  0
  109.7006   66.4785   32.5477 H   0  0  0  0  0  0  0  0  0  0  0  0
  109.0709   70.4184   42.7414 H   0  0  0  0  0  0  0  0  0  0  0  0
  108.3317   66.5974   34.6300 H   0  0  0  0  0  0  0  0  0  0  0  0
  111.8920   65.2860   32.5620 H   0  0  0  0  0  0  0  0  0  0  0  0
  108.8651   68.7654   44.5759 H   0  0  0  0  0  0  0  0  0  0  0  0
  109.9653   69.7390   40.5090 H   0  0  0  0  0  0  0  0  0  0  0  0
  109.1541   65.5241   36.7266 H   0  0  0  0  0  0  0  0  0  0  0  0
  112.7145   64.2125   34.6586 H   0  0  0  0  0  0  0  0  0  0  0  0
  109.8354   62.3637   44.2209 H   0  0  0  0  0  0  0  0  0  0  0  0
  108.3975   64.9047   41.0351 H   0  0  0  0  0  0  0  0  0  0  0  0
  109.5499   66.3774   44.2279 H   0  0  0  0  0  0  0  0  0  0  0  0
  107.5681   61.3437   44.4306 H   0  0  0  0  0  0  0  0  0  0  0  0
  106.1305   63.8843   41.2445 H   0  0  0  0  0  0  0  0  0  0  0  0
  110.2205   67.4357   38.0199 H   0  0  0  0  0  0  0  0  0  0  0  0
  111.6143   68.3743   38.6624 H   0  0  0  0  0  0  0  0  0  0  0  0
  112.4990   64.2152   39.9737 H   0  0  0  0  0  0  0  0  0  0  0  0
  110.8304   63.6645   39.6156 H   0  0  0  0  0  0  0  0  0  0  0  0
  112.1760   66.5859   36.8999 H   0  0  0  0  0  0  0  0  0  0  0  0
  113.0954   66.4992   38.4603 H   0  0  0  0  0  0  0  0  0  0  0  0
  110.9993   64.5448   43.4932 H   0  0  0  0  0  0  0  0  0  0  0  0
  111.2757   63.5889   41.9804 H   0  0  0  0  0  0  0  0  0  0  0  0
  104.7437   62.2978   42.3731 H   0  0  0  0  0  0  0  0  0  0  0  0
  1  3  2  0
  1  4  1  0
  2  5  2  0
  2  6  1  0
  3  7  1  0
  4  8  2  0
  5 11  1  0
  6 14  2  0
  7 15  2  0
  8 15  1  0
  9 12  2  0
  9 17  1  0
 10 13  1  0
 10 17  2  0
 11 18  2  0
 12 19  1  0
 13 19  2  0
 14 16  1  0
 14 18  1  0
 15 21  1  0
 16 20  2  0
 16 22  1  0
 17 25  1  0
 18 26  1  0
 19 29  1  0
 20 23  1  0
 20 26  1  0
 21 27  1  0
 21 28  2  0
 22 24  1  0
 23 27  1  0
 24 27  1  0
 25 26  1  0
  1 30  1  0
  2 31  1  0
  3 32  1  0
  4 33  1  0
  5 34  1  0
  6 35  1  0
  7 36  1  0
  8 37  1  0
  9 38  1  0
 10 39  1  0
 11 40  1  0
 12 41  1  0
 13 42  1  0
 22 43  1  0
 22 44  1  0
 23 45  1  0
 23 46  1  0
 24 47  1  0
 24 48  1  0
 25 49  1  0
 25 50  1  0
 29 51  1  0
M  END
>  <s_m_entry_id>  (140) 
21836

>  <s_m_Source_Path>  (140) 
C:\Users\vinicius\Downloads\Ligands_Ecoli

>  <s_m_Source_File>  (140) 
Ligands_Ecoli_o.sdf

>  <i_m_Source_File_Index>  (140) 
20

>  <i_f3d_flags>  (140) 
0

>  <r_lp_tautomer_probability>  (140) 
0.999999999997365

>  <r_epik_Ionization_Penalty>  (140) 
  0.0024

>  <r_epik_State_Penalty>  (140) 
  0.0016

>  <i_epik_Tot_Q>  (140) 
0

>  <s_m_job_name>  (140) 
ligs_ecFabI_ligprep_2

>  <class_value>  (140) 
0

>  <FRED Chemgauss4 score>  (140) 
-12.574430

>  <Name>  (140) 
CHEMBL70636

>  <Set>  (140) 
test

>  <HBA count>  (140) 
3

>  <HBD count>  (140) 
1

>  <ExactMolWt>  (140) 
382.1681279440006

>  <NumRotatableBounds>  (140) 
4

>  <FractionCsp3>  (140) 
0.16

>  <TPSA>  (140) 
45.47

>  <LogP_WildmanCrippen>  (140) 
4.593700000000005

>  <General_Cluster>  (140) 
1

>  <Biological_Cluster>  (140) 
2

>  <Physicochemical_Cluster>  (140) 
2

>  <Structural_Cluster>  (140) 
7

$$$$
