Zheng_2
     RDKit          3D

 51 55  0  0  1  0  0  0  0  0999 V2000
  110.2182   73.3539   33.2872 C   0  0  0  0  0  0  0  0  0  0  0  0
  111.4250   73.6009   33.9707 C   0  0  0  0  0  0  0  0  0  0  0  0
  109.6536   72.0763   33.2592 C   0  0  0  0  0  0  0  0  0  0  0  0
  112.0886   72.5797   34.6568 C   0  0  0  0  0  0  0  0  0  0  0  0
  112.5374   66.3552   39.9201 C   0  0  0  0  0  0  0  0  0  0  0  0
  110.7086   66.3748   41.1674 C   0  0  0  0  0  0  0  0  0  0  0  0
  110.3081   71.0747   33.9464 C   0  0  0  0  0  0  0  0  0  0  0  0
  111.5054   71.3288   34.6622 C   0  0  0  0  0  0  0  0  0  0  0  0
  111.4643   66.5285   39.0923 C   0  0  0  0  0  0  0  0  0  0  0  0
  108.7542   68.9328   34.0751 C   0  0  0  0  0  0  0  0  0  0  0  0
  108.6500   67.6627   34.5388 C   0  0  0  0  0  0  0  0  0  0  0  0
  111.0721   67.7537   37.0042 C   0  0  0  0  0  0  0  0  0  0  0  0
  109.9776   67.0127   35.0318 C   0  0  0  0  0  0  0  0  0  0  0  0
  110.5015   68.9636   37.6683 C   0  0  0  0  0  0  0  0  0  0  0  0
  110.5774   66.5173   32.2570 C   0  0  0  0  0  0  0  0  0  0  0  0
  111.4962   66.6759   37.6657 C   0  0  0  0  0  0  0  0  0  0  0  0
  110.0946   67.7641   32.3264 C   0  0  0  0  0  0  0  0  0  0  0  0
  110.0817   69.5913   34.0026 C   0  0  2  0  0  0  0  0  0  0  0  0
  110.7702   69.3368   35.3677 C   0  0  1  0  0  0  0  0  0  0  0  0
  110.7758   70.0466   31.6374 C   0  0  0  0  0  0  0  0  0  0  0  0
  112.2953   68.7858   33.1688 C   0  0  0  0  0  0  0  0  0  0  0  0
  110.8339   69.0105   32.7643 C   0  0  0  0  0  0  0  0  0  0  0  0
  110.3459   66.5363   39.8907 N   0  0  0  0  0  0  0  0  0  0  0  0
  112.0405   66.2634   41.1979 N   0  0  0  0  0  4  0  0  0  0  0  0
  111.9981   70.1444   35.2888 N   0  0  0  0  0  0  0  0  0  0  0  0
  110.1308   69.7922   36.6033 N   0  0  0  0  0  0  0  0  0  0  0  0
  110.9122   67.9049   35.6267 N   0  0  0  0  0  0  0  0  0  0  0  0
  107.6399   66.9111   34.6171 O   0  0  0  0  0  1  0  0  0  0  0  0
  110.1214   65.7886   35.0148 O   0  0  0  0  0  0  0  0  0  0  0  0
  110.3587   69.1421   38.8634 O   0  0  0  0  0  0  0  0  0  0  0  0
  109.7121   74.1805   32.7670 H   0  0  0  0  0  0  0  0  0  0  0  0
  111.8523   74.6145   33.9644 H   0  0  0  0  0  0  0  0  0  0  0  0
  108.7219   71.8763   32.7097 H   0  0  0  0  0  0  0  0  0  0  0  0
  113.0414   72.7663   35.1738 H   0  0  0  0  0  0  0  0  0  0  0  0
  113.5946   66.2999   39.6214 H   0  0  0  0  0  0  0  0  0  0  0  0
  110.0336   66.3399   42.0352 H   0  0  0  0  0  0  0  0  0  0  0  0
  107.8534   69.4754   33.7524 H   0  0  0  0  0  0  0  0  0  0  0  0
  109.9297   65.6947   31.9198 H   0  0  0  0  0  0  0  0  0  0  0  0
  111.6218   66.3155   32.5372 H   0  0  0  0  0  0  0  0  0  0  0  0
  111.8993   65.8401   37.0750 H   0  0  0  0  0  0  0  0  0  0  0  0
  109.0431   67.8978   32.0323 H   0  0  0  0  0  0  0  0  0  0  0  0
  110.7192   71.0563   32.0702 H   0  0  0  0  0  0  0  0  0  0  0  0
  111.6800   69.9640   31.0164 H   0  0  0  0  0  0  0  0  0  0  0  0
  109.8865   69.8635   31.0164 H   0  0  0  0  0  0  0  0  0  0  0  0
  112.3744   68.7736   34.2659 H   0  0  0  0  0  0  0  0  0  0  0  0
  112.6436   67.8235   32.7654 H   0  0  0  0  0  0  0  0  0  0  0  0
  112.9166   69.5990   32.7654 H   0  0  0  0  0  0  0  0  0  0  0  0
  109.3779   66.6491   39.5572 H   0  0  0  0  0  0  0  0  0  0  0  0
  112.6067   66.1295   42.0479 H   0  0  0  0  0  0  0  0  0  0  0  0
  112.9530   69.9170   35.6008 H   0  0  0  0  0  0  0  0  0  0  0  0
  109.5006   70.6035   36.6779 H   0  0  0  0  0  0  0  0  0  0  0  0
  1  2  2  0
  1  3  1  0
  2  4  1  0
  3  7  2  0
  4  8  2  0
  5  9  2  0
  5 24  1  0
  6 23  1  0
  6 24  2  0
  7  8  1  0
  7 18  1  0
  8 25  1  0
  9 16  1  0
  9 23  1  0
 10 11  2  0
 10 18  1  0
 11 13  1  0
 11 28  1  0
 12 14  1  0
 12 16  2  0
 12 27  1  0
 13 27  1  0
 13 29  2  0
 14 26  1  0
 14 30  2  0
 15 17  2  3
 17 22  1  0
 18 19  1  0
 18 22  1  6
 19 25  1  6
 19 26  1  0
 19 27  1  0
 20 22  1  0
 21 22  1  0
  1 31  1  0
  2 32  1  0
  3 33  1  0
  4 34  1  0
  5 35  1  0
  6 36  1  0
 10 37  1  0
 15 38  1  0
 15 39  1  0
 16 40  1  0
 17 41  1  0
 20 42  1  0
 20 43  1  0
 20 44  1  0
 21 45  1  0
 21 46  1  0
 21 47  1  0
 23 48  1  0
 24 49  1  0
 25 50  1  0
 26 51  1  0
M  CHG  2  24   1  28  -1
M  END
>  <Name>  (1) 
Zheng_2

>  <Comment>  (1) 
 Schrodinger Suite 2021-4.

>  <s_m_entry_id>  (1) 
1402

>  <class_value>  (1) 
0

>  <s_m_Source_Path>  (1) 
C:\Users\vinicius\Desktop

>  <s_m_Source_File>  (1) 
Ligands_Saureus_o.sdf

>  <i_m_Source_File_Index>  (1) 
231

>  <r_epik_Ionization_Penalty>  (1) 
2.1825

>  <r_epik_State_Penalty>  (1) 
2.03

>  <i_epik_Tot_Q>  (1) 
0

>  <i_f3d_flags>  (1) 
0

>  <s_m_job_name>  (1) 
Saureus_o

>  <FRED Chemgauss4 score>  (1) 
-10.257810

>  <Set>  (1) 
training

>  <HBA count>  (1) 
4

>  <HBD count>  (1) 
3

>  <ExactMolWt>  (1) 
403.16443953200064

>  <NumRotatableBounds>  (1) 
5

>  <FractionCsp3>  (1) 
0.22727272727272727

>  <TPSA>  (1) 
114.43

>  <LogP_WildmanCrippen>  (1) 
0.6153999999999997

>  <General_Cluster>  (1) 
5

>  <Biological_Cluster>  (1) 
2

>  <Physicochemical_Cluster>  (1) 
4

>  <Structural_Cluster>  (1) 
3

$$$$
CHEMBL4217867
     RDKit          3D

 50 52  0  0  1  0  0  0  0  0999 V2000
  108.7720   67.1053   41.0490 C   0  0  0  0  0  0  0  0  0  0  0  0
  109.6914   65.0286   41.8731 C   0  0  0  0  0  0  0  0  0  0  0  0
  110.3558   68.4820   35.0241 C   0  0  0  0  0  0  0  0  0  0  0  0
  110.4919   66.8979   33.2050 C   0  0  0  0  0  0  0  0  0  0  0  0
  110.7198   69.5108   34.1555 C   0  0  0  0  0  0  0  0  0  0  0  0
  110.8559   67.9268   32.3363 C   0  0  0  0  0  0  0  0  0  0  0  0
  107.8610   67.1212   42.1051 C   0  0  0  0  0  0  0  0  0  0  0  0
  108.7804   65.0445   42.9293 C   0  0  0  0  0  0  0  0  0  0  0  0
  109.6872   66.0590   40.9329 C   0  0  0  0  0  0  0  0  0  0  0  0
  110.2418   67.1755   34.5489 C   0  0  0  0  0  0  0  0  0  0  0  0
  110.9699   69.2333   32.8116 C   0  0  0  0  0  0  0  0  0  0  0  0
  107.8652   66.0908   43.0453 C   0  0  0  0  0  0  0  0  0  0  0  0
  111.0480   65.4247   36.1338 C   0  0  0  0  0  0  0  0  0  0  0  0
  111.4973   71.6232   32.2334 C   0  0  0  0  0  0  0  0  0  0  0  0
  111.6264   64.8334   39.7156 C   0  0  0  0  0  0  0  0  0  0  0  0
  112.1513   64.8793   38.2894 C   0  0  0  0  0  0  0  0  0  0  0  0
  110.0397   66.0190   38.3884 C   0  0  0  0  0  0  0  0  0  0  0  0
  110.6759   66.0419   39.7876 C   0  0  1  0  0  0  0  0  0  0  0  0
  111.8987   72.4117   31.0121 C   0  0  0  0  0  0  0  0  0  0  0  0
  106.0705   67.2074   44.1353 C   0  0  0  0  0  0  0  0  0  0  0  0
  109.8504   66.0693   35.4830 C   0  0  0  0  0  0  0  0  0  0  0  0
  111.0631   65.4522   37.5168 N   0  0  0  0  0  0  0  0  0  0  0  0
  111.3338   70.2622   31.9425 N   0  0  0  0  0  0  0  0  0  0  0  0
  111.9374   64.9225   35.4446 O   0  0  0  0  0  0  0  0  0  0  0  0
  111.3537   72.1763   33.3189 O   0  0  0  0  0  0  0  0  0  0  0  0
  106.9771   66.1072   44.0766 O   0  0  0  0  0  0  0  0  0  0  0  0
  108.7687   67.9179   40.3076 H   0  0  0  0  0  0  0  0  0  0  0  0
  110.4131   64.2035   41.7816 H   0  0  0  0  0  0  0  0  0  0  0  0
  110.1586   68.7009   36.0839 H   0  0  0  0  0  0  0  0  0  0  0  0
  110.4021   65.8676   32.8302 H   0  0  0  0  0  0  0  0  0  0  0  0
  110.8096   70.5411   34.5303 H   0  0  0  0  0  0  0  0  0  0  0  0
  111.0530   67.7079   31.2765 H   0  0  0  0  0  0  0  0  0  0  0  0
  107.1393   67.9463   42.1965 H   0  0  0  0  0  0  0  0  0  0  0  0
  108.7837   64.2319   43.6707 H   0  0  0  0  0  0  0  0  0  0  0  0
  111.0845   63.8951   39.9051 H   0  0  0  0  0  0  0  0  0  0  0  0
  112.4274   64.8728   40.4685 H   0  0  0  0  0  0  0  0  0  0  0  0
  113.0482   65.5129   38.2259 H   0  0  0  0  0  0  0  0  0  0  0  0
  112.4463   63.8856   37.9213 H   0  0  0  0  0  0  0  0  0  0  0  0
  109.1371   65.3902   38.3845 H   0  0  0  0  0  0  0  0  0  0  0  0
  109.7270   67.0214   38.0605 H   0  0  0  0  0  0  0  0  0  0  0  0
  111.2080   66.9751   40.0243 H   0  0  0  0  0  0  0  0  0  0  0  0
  112.3773   73.3519   31.3236 H   0  0  0  0  0  0  0  0  0  0  0  0
  112.6062   71.8217   30.4109 H   0  0  0  0  0  0  0  0  0  0  0  0
  111.0054   72.6366   30.4109 H   0  0  0  0  0  0  0  0  0  0  0  0
  105.8647   67.4572   45.1866 H   0  0  0  0  0  0  0  0  0  0  0  0
  106.5171   68.0778   43.6323 H   0  0  0  0  0  0  0  0  0  0  0  0
  105.1308   66.9354   43.6323 H   0  0  0  0  0  0  0  0  0  0  0  0
  109.1996   66.4818   36.2680 H   0  0  0  0  0  0  0  0  0  0  0  0
  109.3292   65.2991   34.8956 H   0  0  0  0  0  0  0  0  0  0  0  0
  111.5035   69.9870   30.9646 H   0  0  0  0  0  0  0  0  0  0  0  0
  1  7  2  0
  1  9  1  0
  2  8  1  0
  2  9  2  0
  3  5  2  0
  3 10  1  0
  4  6  1  0
  4 10  2  0
  5 11  1  0
  6 11  2  0
  7 12  1  0
  8 12  2  0
  9 18  1  0
 10 21  1  0
 11 23  1  0
 12 26  1  0
 13 21  1  0
 13 22  1  0
 13 24  2  0
 14 19  1  0
 14 23  1  0
 14 25  2  0
 15 16  1  0
 15 18  1  0
 16 22  1  0
 17 18  1  0
 17 22  1  0
 20 26  1  0
  1 27  1  0
  2 28  1  0
  3 29  1  0
  4 30  1  0
  5 31  1  0
  6 32  1  0
  7 33  1  0
  8 34  1  0
 15 35  1  0
 15 36  1  0
 16 37  1  0
 16 38  1  0
 17 39  1  0
 17 40  1  0
 18 41  1  6
 19 42  1  0
 19 43  1  0
 19 44  1  0
 20 45  1  0
 20 46  1  0
 20 47  1  0
 21 48  1  0
 21 49  1  0
 23 50  1  0
M  END
>  <Name>  (2) 
CHEMBL4217867

>  <Comment>  (2) 
 Schrodinger Suite 2021-4.

>  <s_m_entry_id>  (2) 
1497

>  <s_m_Source_Path>  (2) 
C:\Users\vinicius\Desktop

>  <s_m_Source_File>  (2) 
Ligands_Saureus_failomega.smi

>  <i_m_Source_File_Index>  (2) 
34

>  <r_lp_tautomer_probability>  (2) 
1

>  <r_epik_Ionization_Penalty>  (2) 
0

>  <r_epik_State_Penalty>  (2) 
0

>  <i_epik_Tot_Q>  (2) 
0

>  <i_f3d_flags>  (2) 
0

>  <s_m_job_name>  (2) 
Saureus_fail

>  <class_value>  (2) 
0

>  <FRED Chemgauss4 score>  (2) 
-12.868539

>  <Set>  (2) 
training

>  <HBA count>  (2) 
3

>  <HBD count>  (2) 
1

>  <ExactMolWt>  (2) 
352.17869262800065

>  <NumRotatableBounds>  (2) 
7

>  <FractionCsp3>  (2) 
0.3333333333333333

>  <TPSA>  (2) 
58.64

>  <LogP_WildmanCrippen>  (2) 
3.212200000000001

>  <General_Cluster>  (2) 
3

>  <Biological_Cluster>  (2) 
2

>  <Physicochemical_Cluster>  (2) 
1

>  <Structural_Cluster>  (2) 
4

$$$$
CHEMBL3322709
     RDKit          3D

 48 51  0  0  0  0  0  0  0  0999 V2000
  110.7616   70.9886   32.5137 C   0  0  0  0  0  0  0  0  0  0  0  0
  111.8510   70.7052   34.6514 C   0  0  0  0  0  0  0  0  0  0  0  0
  110.7763   72.3722   32.6896 C   0  0  0  0  0  0  0  0  0  0  0  0
  111.8657   72.0889   34.8273 C   0  0  0  0  0  0  0  0  0  0  0  0
  109.5690   66.5786   39.7788 C   0  0  0  0  0  0  0  0  0  0  0  0
  110.9365   64.8820   40.7237 C   0  0  0  0  0  0  0  0  0  0  0  0
  110.5716   65.6301   39.6185 C   0  0  0  0  0  0  0  0  0  0  0  0
  108.9531   66.7361   41.0212 C   0  0  0  0  0  0  0  0  0  0  0  0
  111.2989   70.1551   33.4946 C   0  0  0  0  0  0  0  0  0  0  0  0
  111.3284   72.9224   33.8464 C   0  0  0  0  0  0  0  0  0  0  0  0
  109.3863   65.9301   42.0735 C   0  0  0  0  0  0  0  0  0  0  0  0
  107.6842   66.8671   43.5933 C   0  0  0  0  0  0  0  0  0  0  0  0
  111.2257   65.4403   38.3367 C   0  0  0  0  0  0  0  0  0  0  0  0
  110.7356   65.8214   37.1334 C   0  0  0  0  0  0  0  0  0  0  0  0
  111.4344   65.5977   35.8548 C   0  0  0  0  0  0  0  0  0  0  0  0
  107.9362   67.8103   41.2620 C   0  0  0  0  0  0  0  0  0  0  0  0
  106.9743   67.4050   42.3676 C   0  0  0  0  0  0  0  0  0  0  0  0
  109.5171   66.7289   34.5228 C   0  0  0  0  0  0  0  0  0  0  0  0
  111.1544   65.9786   33.3471 C   0  0  0  0  0  0  0  0  0  0  0  0
  109.9224   66.8478   33.0430 C   0  0  0  0  0  0  0  0  0  0  0  0
  110.2187   68.2562   32.5548 C   0  0  0  0  0  0  0  0  0  0  0  0
  110.3751   65.0138   41.9463 N   0  0  0  0  0  0  0  0  0  0  0  0
  108.7965   66.0884   43.3422 N   0  0  0  0  0  0  0  0  0  0  0  0
  110.7798   66.0534   34.7464 N   0  0  0  0  0  0  0  0  0  0  0  0
  107.2302   67.0436   44.7238 O   0  0  0  0  0  0  0  0  0  0  0  0
  112.5264   65.0352   35.8436 O   0  0  0  0  0  0  0  0  0  0  0  0
  111.2844   68.7945   33.3217 O   0  0  0  0  0  0  0  0  0  0  0  0
  111.3425   74.2511   34.0153 F   0  0  0  0  0  0  0  0  0  0  0  0
  110.3263   70.5548   31.6014 H   0  0  0  0  0  0  0  0  0  0  0  0
  112.2748   70.0479   35.4249 H   0  0  0  0  0  0  0  0  0  0  0  0
  110.3525   73.0295   31.9161 H   0  0  0  0  0  0  0  0  0  0  0  0
  112.3010   72.5227   35.7396 H   0  0  0  0  0  0  0  0  0  0  0  0
  109.2613   67.2042   38.9280 H   0  0  0  0  0  0  0  0  0  0  0  0
  111.7329   64.1335   40.5998 H   0  0  0  0  0  0  0  0  0  0  0  0
  112.2067   64.9427   38.3435 H   0  0  0  0  0  0  0  0  0  0  0  0
  109.7592   66.3274   37.1085 H   0  0  0  0  0  0  0  0  0  0  0  0
  108.4524   68.7365   41.5547 H   0  0  0  0  0  0  0  0  0  0  0  0
  107.3633   67.9674   40.3362 H   0  0  0  0  0  0  0  0  0  0  0  0
  106.3016   66.6256   41.9804 H   0  0  0  0  0  0  0  0  0  0  0  0
  106.4211   68.3055   42.6729 H   0  0  0  0  0  0  0  0  0  0  0  0
  109.4109   67.6894   35.0483 H   0  0  0  0  0  0  0  0  0  0  0  0
  108.5591   66.2819   34.8270 H   0  0  0  0  0  0  0  0  0  0  0  0
  111.1204   64.9671   32.9161 H   0  0  0  0  0  0  0  0  0  0  0  0
  112.1604   66.2581   33.0009 H   0  0  0  0  0  0  0  0  0  0  0  0
  109.2210   66.5755   32.2406 H   0  0  0  0  0  0  0  0  0  0  0  0
  110.5061   68.2261   31.4934 H   0  0  0  0  0  0  0  0  0  0  0  0
  109.3236   68.8855   32.6678 H   0  0  0  0  0  0  0  0  0  0  0  0
  109.2233   65.5900   44.1361 H   0  0  0  0  0  0  0  0  0  0  0  0
  1  3  2  0
  1  9  1  0
  2  4  1  0
  2  9  2  0
  3 10  1  0
  4 10  2  0
  5  7  2  0
  5  8  1  0
  6  7  1  0
  6 22  2  0
  7 13  1  0
  8 11  2  0
  8 16  1  0
  9 27  1  0
 10 28  1  0
 11 22  1  0
 11 23  1  0
 12 17  1  0
 12 23  1  0
 12 25  2  0
 13 14  2  0
 14 15  1  0
 15 24  1  0
 15 26  2  0
 16 17  1  0
 18 20  1  0
 18 24  1  0
 19 20  1  0
 19 24  1  0
 20 21  1  0
 21 27  1  0
  1 29  1  0
  2 30  1  0
  3 31  1  0
  4 32  1  0
  5 33  1  0
  6 34  1  0
 13 35  1  0
 14 36  1  0
 16 37  1  0
 16 38  1  0
 17 39  1  0
 17 40  1  0
 18 41  1  0
 18 42  1  0
 19 43  1  0
 19 44  1  0
 20 45  1  0
 21 46  1  0
 21 47  1  0
 23 48  1  0
M  END
>  <Name>  (3) 
CHEMBL3322709

>  <Comment>  (3) 
 Schrodinger Suite 2021-4.

>  <s_m_entry_id>  (3) 
1154

>  <class_value>  (3) 
1

>  <s_m_Source_Path>  (3) 
C:\Users\vinicius\Desktop

>  <s_m_Source_File>  (3) 
Ligands_Saureus_o.sdf

>  <i_m_Source_File_Index>  (3) 
63

>  <r_lp_tautomer_probability>  (3) 
1

>  <r_epik_Ionization_Penalty>  (3) 
0.0002

>  <r_epik_State_Penalty>  (3) 
0

>  <i_epik_Tot_Q>  (3) 
0

>  <i_f3d_flags>  (3) 
0

>  <s_m_job_name>  (3) 
Saureus_o

>  <FRED Chemgauss4 score>  (3) 
-11.888196

>  <Set>  (3) 
training

>  <HBA count>  (3) 
4

>  <HBD count>  (3) 
1

>  <ExactMolWt>  (3) 
381.14886972000056

>  <NumRotatableBounds>  (3) 
5

>  <FractionCsp3>  (3) 
0.2857142857142857

>  <TPSA>  (3) 
71.53

>  <LogP_WildmanCrippen>  (3) 
2.6560000000000006

>  <General_Cluster>  (3) 
1

>  <Biological_Cluster>  (3) 
1

>  <Physicochemical_Cluster>  (3) 
4

>  <Structural_Cluster>  (3) 
2

$$$$
CHEMBL3623406
     RDKit          3D

 33 35  0  0  0  0  0  0  0  0999 V2000
  109.9394   63.7156   42.5920 C   0  0  0  0  0  0  0  0  0  0  0  0
  109.0072   62.8260   43.1260 C   0  0  0  0  0  0  0  0  0  0  0  0
  109.3702   67.9580   33.2632 C   0  0  0  0  0  0  0  0  0  0  0  0
  107.3010   64.5309   42.9880 C   0  0  0  0  0  0  0  0  0  0  0  0
  109.7262   67.7383   31.9529 C   0  0  0  0  0  0  0  0  0  0  0  0
  110.9397   66.3771   33.1462 C   0  0  0  0  0  0  0  0  0  0  0  0
  110.1584   67.0741   34.0382 C   0  0  0  0  0  0  0  0  0  0  0  0
  109.5524   65.0130   42.2560 C   0  0  0  0  0  0  0  0  0  0  0  0
  107.6880   63.2336   43.3240 C   0  0  0  0  0  0  0  0  0  0  0  0
  108.2332   65.4206   42.4540 C   0  0  0  0  0  0  0  0  0  0  0  0
  111.6938   65.0278   38.2440 C   0  0  0  0  0  0  0  0  0  0  0  0
  109.9219   66.6982   39.5823 C   0  0  0  0  0  0  0  0  0  0  0  0
  110.6289   65.8762   40.3672 C   0  0  0  0  0  0  0  0  0  0  0  0
  110.9170   65.9054   37.6011 C   0  0  0  0  0  0  0  0  0  0  0  0
  111.5956   64.9556   39.7207 C   0  0  0  0  0  0  0  0  0  0  0  0
  110.1693   66.9049   35.5017 C   0  0  0  0  0  0  0  0  0  0  0  0
  110.9480   66.0422   36.1696 C   0  0  0  0  0  0  0  0  0  0  0  0
  112.2807   64.1726   40.3680 O   0  0  0  0  0  0  0  0  0  0  0  0
  110.6823   66.7760   31.8729 O   0  0  0  0  0  0  0  0  0  0  0  0
  110.0219   66.7576   38.2124 O   0  0  0  0  0  0  0  0  0  0  0  0
  110.4874   65.8645   41.7339 O   0  0  0  0  0  0  0  0  0  0  0  0
  106.5390   62.1349   43.9833 Cl  0  0  0  0  0  0  0  0  0  0  0  0
  107.7280   67.0192   42.0477 Cl  0  0  0  0  0  0  0  0  0  0  0  0
  110.9797   63.3941   42.4358 H   0  0  0  0  0  0  0  0  0  0  0  0
  109.3124   61.8029   43.3910 H   0  0  0  0  0  0  0  0  0  0  0  0
  108.6236   68.6758   33.6339 H   0  0  0  0  0  0  0  0  0  0  0  0
  106.2607   64.8524   43.1441 H   0  0  0  0  0  0  0  0  0  0  0  0
  109.2967   68.2679   31.0898 H   0  0  0  0  0  0  0  0  0  0  0  0
  111.6712   65.6042   33.4248 H   0  0  0  0  0  0  0  0  0  0  0  0
  112.3873   64.3767   37.6916 H   0  0  0  0  0  0  0  0  0  0  0  0
  109.2071   67.3773   40.0700 H   0  0  0  0  0  0  0  0  0  0  0  0
  109.4865   67.5344   36.0911 H   0  0  0  0  0  0  0  0  0  0  0  0
  111.6424   65.4100   35.5968 H   0  0  0  0  0  0  0  0  0  0  0  0
  1  2  2  0
  1  8  1  0
  2  9  1  0
  3  5  2  0
  3  7  1  0
  4  9  2  0
  4 10  1  0
  5 19  1  0
  6  7  2  0
  6 19  1  0
  7 16  1  0
  8 10  2  0
  8 21  1  0
  9 22  1  0
 10 23  1  0
 11 14  2  0
 11 15  1  0
 12 13  2  0
 12 20  1  0
 13 15  1  0
 13 21  1  0
 14 17  1  0
 14 20  1  0
 15 18  2  0
 16 17  2  0
  1 24  1  0
  2 25  1  0
  3 26  1  0
  4 27  1  0
  5 28  1  0
  6 29  1  0
 11 30  1  0
 12 31  1  0
 16 32  1  0
 17 33  1  0
M  END
>  <Name>  (4) 
CHEMBL3623406

>  <Comment>  (4) 
 Schrodinger Suite 2021-4.

>  <s_m_entry_id>  (4) 
1218

>  <class_value>  (4) 
0

>  <s_m_Source_Path>  (4) 
C:\Users\vinicius\Desktop

>  <s_m_Source_File>  (4) 
Ligands_Saureus_o.sdf

>  <i_m_Source_File_Index>  (4) 
113

>  <r_lp_tautomer_probability>  (4) 
1

>  <r_epik_Ionization_Penalty>  (4) 
0

>  <r_epik_State_Penalty>  (4) 
0

>  <i_epik_Tot_Q>  (4) 
0

>  <i_f3d_flags>  (4) 
0

>  <s_m_job_name>  (4) 
Saureus_o

>  <FRED Chemgauss4 score>  (4) 
-11.047956

>  <Set>  (4) 
training

>  <HBA count>  (4) 
4

>  <HBD count>  (4) 
0

>  <ExactMolWt>  (4) 
347.9956141600003

>  <NumRotatableBounds>  (4) 
4

>  <FractionCsp3>  (4) 
0.0

>  <TPSA>  (4) 
52.58

>  <LogP_WildmanCrippen>  (4) 
5.502300000000002

>  <General_Cluster>  (4) 
4

>  <Biological_Cluster>  (4) 
2

>  <Physicochemical_Cluster>  (4) 
3

>  <Structural_Cluster>  (4) 
1

$$$$
CHEMBL72725
     RDKit          3D

 51 55  0  0  0  0  0  0  0  0999 V2000
  107.8536   62.6886   43.4653 C   0  0  0  0  0  0  0  0  0  0  0  0
  107.0297   63.7694   43.7719 C   0  0  0  0  0  0  0  0  0  0  0  0
  108.8728   62.8120   42.5142 C   0  0  0  0  0  0  0  0  0  0  0  0
  112.3049   68.5703   37.6349 C   0  0  0  0  0  0  0  0  0  0  0  0
  107.4753   68.7323   43.5917 C   0  0  0  0  0  0  0  0  0  0  0  0
  109.7722   68.5707   42.8601 C   0  0  0  0  0  0  0  0  0  0  0  0
  107.1966   65.0048   43.1399 C   0  0  0  0  0  0  0  0  0  0  0  0
  107.8826   69.4600   44.7098 C   0  0  0  0  0  0  0  0  0  0  0  0
  110.1795   69.2984   43.9781 C   0  0  0  0  0  0  0  0  0  0  0  0
  112.2438   69.8964   37.2070 C   0  0  0  0  0  0  0  0  0  0  0  0
  110.5689   69.2923   35.5740 C   0  0  0  0  0  0  0  0  0  0  0  0
  109.0620   64.0477   41.8634 C   0  0  0  0  0  0  0  0  0  0  0  0
  111.4981   67.6051   37.0323 C   0  0  0  0  0  0  0  0  0  0  0  0
  109.9662   64.5247   40.8758 C   0  0  0  0  0  0  0  0  0  0  0  0
  108.4201   68.2875   42.6668 C   0  0  0  0  0  0  0  0  0  0  0  0
  108.2189   65.1157   42.1905 C   0  0  0  0  0  0  0  0  0  0  0  0
  109.2347   69.7431   44.9030 C   0  0  0  0  0  0  0  0  0  0  0  0
  111.3757   70.2575   36.1766 C   0  0  0  0  0  0  0  0  0  0  0  0
  110.6301   67.9661   36.0019 C   0  0  0  0  0  0  0  0  0  0  0  0
  109.6542   65.8446   40.6267 C   0  0  0  0  0  0  0  0  0  0  0  0
  111.5969   66.2199   37.5171 C   0  0  0  0  0  0  0  0  0  0  0  0
  111.0724   63.8421   40.1516 C   0  0  0  0  0  0  0  0  0  0  0  0
  110.3386   66.7539   39.6711 C   0  0  0  0  0  0  0  0  0  0  0  0
  112.0347   64.8884   39.5634 C   0  0  0  0  0  0  0  0  0  0  0  0
  107.9807   67.5029   41.4603 C   0  0  0  0  0  0  0  0  0  0  0  0
  108.6032   66.1962   41.4243 N   0  0  0  0  0  0  0  0  0  0  0  0
  111.3066   65.9685   38.8633 N   0  0  0  0  0  0  0  0  0  0  0  0
  111.9392   65.3755   36.6904 O   0  0  0  0  0  0  0  0  0  0  0  0
  109.6318   70.4544   45.9934 O   0  0  0  0  0  0  0  0  0  0  0  0
  111.3027   71.8935   35.6472 Cl  0  0  0  0  0  0  0  0  0  0  0  0
  109.6150   66.8014   35.2299 Cl  0  0  0  0  0  0  0  0  0  0  0  0
  107.7012   61.7268   43.9769 H   0  0  0  0  0  0  0  0  0  0  0  0
  106.2354   63.6486   44.5232 H   0  0  0  0  0  0  0  0  0  0  0  0
  109.5191   61.9540   42.2772 H   0  0  0  0  0  0  0  0  0  0  0  0
  112.9893   68.2856   38.4476 H   0  0  0  0  0  0  0  0  0  0  0  0
  106.4090   68.5092   43.4393 H   0  0  0  0  0  0  0  0  0  0  0  0
  110.5173   68.2201   42.1308 H   0  0  0  0  0  0  0  0  0  0  0  0
  106.5474   65.8597   43.3802 H   0  0  0  0  0  0  0  0  0  0  0  0
  107.1376   69.8106   45.4392 H   0  0  0  0  0  0  0  0  0  0  0  0
  111.2458   69.5216   44.1305 H   0  0  0  0  0  0  0  0  0  0  0  0
  112.8802   70.6575   37.6821 H   0  0  0  0  0  0  0  0  0  0  0  0
  109.8844   69.5770   34.7613 H   0  0  0  0  0  0  0  0  0  0  0  0
  111.6210   63.1937   40.8506 H   0  0  0  0  0  0  0  0  0  0  0  0
  110.6523   63.2360   39.3354 H   0  0  0  0  0  0  0  0  0  0  0  0
  109.5948   67.2178   39.0066 H   0  0  0  0  0  0  0  0  0  0  0  0
  110.8703   67.5419   40.2245 H   0  0  0  0  0  0  0  0  0  0  0  0
  112.6258   65.3282   40.3802 H   0  0  0  0  0  0  0  0  0  0  0  0
  112.6851   64.3842   38.8335 H   0  0  0  0  0  0  0  0  0  0  0  0
  106.8883   67.3781   41.4930 H   0  0  0  0  0  0  0  0  0  0  0  0
  108.2837   68.0556   40.5588 H   0  0  0  0  0  0  0  0  0  0  0  0
  110.5914   70.6554   46.1307 H   0  0  0  0  0  0  0  0  0  0  0  0
  1  2  2  0
  1  3  1  0
  2  7  1  0
  3 12  2  0
  4 10  2  0
  4 13  1  0
  5  8  2  0
  5 15  1  0
  6  9  1  0
  6 15  2  0
  7 16  2  0
  8 17  1  0
  9 17  2  0
 10 18  1  0
 11 18  2  0
 11 19  1  0
 12 14  1  0
 12 16  1  0
 13 19  2  0
 13 21  1  0
 14 20  2  0
 14 22  1  0
 15 25  1  0
 16 26  1  0
 17 29  1  0
 18 30  1  0
 19 31  1  0
 20 23  1  0
 20 26  1  0
 21 27  1  0
 21 28  2  0
 22 24  1  0
 23 27  1  0
 24 27  1  0
 25 26  1  0
  1 32  1  0
  2 33  1  0
  3 34  1  0
  4 35  1  0
  5 36  1  0
  6 37  1  0
  7 38  1  0
  8 39  1  0
  9 40  1  0
 10 41  1  0
 11 42  1  0
 22 43  1  0
 22 44  1  0
 23 45  1  0
 23 46  1  0
 24 47  1  0
 24 48  1  0
 25 49  1  0
 25 50  1  0
 29 51  1  0
M  END
>  <Name>  (5) 
CHEMBL72725

>  <Comment>  (5) 
 Schrodinger Suite 2021-4.

>  <s_m_entry_id>  (5) 
1215

>  <class_value>  (5) 
0

>  <s_m_Source_Path>  (5) 
C:\Users\vinicius\Desktop

>  <s_m_Source_File>  (5) 
Ligands_Saureus_o.sdf

>  <i_m_Source_File_Index>  (5) 
111

>  <r_lp_tautomer_probability>  (5) 
0.999999999997365

>  <r_epik_Ionization_Penalty>  (5) 
0.0009

>  <r_epik_State_Penalty>  (5) 
0.0006

>  <i_epik_Tot_Q>  (5) 
0

>  <i_f3d_flags>  (5) 
0

>  <s_m_job_name>  (5) 
Saureus_o

>  <FRED Chemgauss4 score>  (5) 
-11.971607

>  <Set>  (5) 
training

>  <HBA count>  (5) 
3

>  <HBD count>  (5) 
1

>  <ExactMolWt>  (5) 
450.09018324000056

>  <NumRotatableBounds>  (5) 
4

>  <FractionCsp3>  (5) 
0.16

>  <TPSA>  (5) 
45.47

>  <LogP_WildmanCrippen>  (5) 
5.900500000000004

>  <General_Cluster>  (5) 
3

>  <Biological_Cluster>  (5) 
2

>  <Physicochemical_Cluster>  (5) 
1

>  <Structural_Cluster>  (5) 
4

$$$$
CHEMBL4206150
     RDKit          3D

 42 44  0  0  1  0  0  0  0  0999 V2000
  110.2847   68.2991   34.8343 C   0  0  0  0  0  0  0  0  0  0  0  0
  110.6681   66.5737   33.1871 C   0  0  0  0  0  0  0  0  0  0  0  0
  110.6526   69.2700   33.9029 C   0  0  0  0  0  0  0  0  0  0  0  0
  111.0360   67.5447   32.2557 C   0  0  0  0  0  0  0  0  0  0  0  0
  107.8595   65.7278   42.4104 C   0  0  0  0  0  0  0  0  0  0  0  0
  107.5967   67.0815   42.4332 C   0  0  0  0  0  0  0  0  0  0  0  0
  110.2925   66.9509   34.4764 C   0  0  0  0  0  0  0  0  0  0  0  0
  111.0282   68.8929   32.6136 C   0  0  0  0  0  0  0  0  0  0  0  0
  109.2911   66.3675   40.8770 C   0  0  0  0  0  0  0  0  0  0  0  0
  111.0757   65.4081   36.2748 C   0  0  0  0  0  0  0  0  0  0  0  0
  111.4492   71.2534   31.8552 C   0  0  0  0  0  0  0  0  0  0  0  0
  111.3964   65.1782   39.9295 C   0  0  0  0  0  0  0  0  0  0  0  0
  112.0318   65.1344   38.5490 C   0  0  0  0  0  0  0  0  0  0  0  0
  109.8516   66.1273   38.3813 C   0  0  0  0  0  0  0  0  0  0  0  0
  110.3690   66.3185   39.8161 C   0  0  1  0  0  0  0  0  0  0  0  0
  111.8981   71.9569   30.5991 C   0  0  0  0  0  0  0  0  0  0  0  0
  109.8969   65.9069   35.4780 C   0  0  0  0  0  0  0  0  0  0  0  0
  108.8306   65.3165   41.5184 N   0  0  0  0  0  0  0  0  0  0  0  0
  110.9763   65.5589   37.6463 N   0  0  0  0  0  0  0  0  0  0  0  0
  111.3960   69.8639   31.6818 N   0  0  0  0  0  0  0  0  0  0  0  0
  112.0481   64.9105   35.7047 O   0  0  0  0  0  0  0  0  0  0  0  0
  111.1830   71.8889   32.8702 O   0  0  0  0  0  0  0  0  0  0  0  0
  108.6017   67.8818   41.2970 S   0  0  0  0  0  0  0  0  0  0  0  0
  109.9884   68.5966   35.8510 H   0  0  0  0  0  0  0  0  0  0  0  0
  110.6742   65.5105   32.9049 H   0  0  0  0  0  0  0  0  0  0  0  0
  110.6465   70.3332   34.1852 H   0  0  0  0  0  0  0  0  0  0  0  0
  111.3323   67.2473   31.2390 H   0  0  0  0  0  0  0  0  0  0  0  0
  107.3283   65.0190   43.0627 H   0  0  0  0  0  0  0  0  0  0  0  0
  106.8558   67.5728   43.0811 H   0  0  0  0  0  0  0  0  0  0  0  0
  110.9011   64.2246   40.1648 H   0  0  0  0  0  0  0  0  0  0  0  0
  112.1294   65.3403   40.7336 H   0  0  0  0  0  0  0  0  0  0  0  0
  112.8892   65.8213   38.4942 H   0  0  0  0  0  0  0  0  0  0  0  0
  112.4178   64.1352   38.2989 H   0  0  0  0  0  0  0  0  0  0  0  0
  108.9938   65.4388   38.3683 H   0  0  0  0  0  0  0  0  0  0  0  0
  109.5041   67.0723   37.9383 H   0  0  0  0  0  0  0  0  0  0  0  0
  110.8202   67.3040   40.0038 H   0  0  0  0  0  0  0  0  0  0  0  0
  112.4719   72.8562   30.8676 H   0  0  0  0  0  0  0  0  0  0  0  0
  112.5321   71.2807   30.0067 H   0  0  0  0  0  0  0  0  0  0  0  0
  111.0178   72.2470   30.0067 H   0  0  0  0  0  0  0  0  0  0  0  0
  109.1596   66.3405   36.1696 H   0  0  0  0  0  0  0  0  0  0  0  0
  109.4749   65.0530   34.9277 H   0  0  0  0  0  0  0  0  0  0  0  0
  111.6618   69.5158   30.7495 H   0  0  0  0  0  0  0  0  0  0  0  0
  1  3  2  0
  1  7  1  0
  2  4  1  0
  2  7  2  0
  3  8  1  0
  4  8  2  0
  5  6  2  0
  5 18  1  0
  6 23  1  0
  7 17  1  0
  8 20  1  0
  9 15  1  0
  9 18  2  0
  9 23  1  0
 10 17  1  0
 10 19  1  0
 10 21  2  0
 11 16  1  0
 11 20  1  0
 11 22  2  0
 12 13  1  0
 12 15  1  0
 13 19  1  0
 14 15  1  0
 14 19  1  0
  1 24  1  0
  2 25  1  0
  3 26  1  0
  4 27  1  0
  5 28  1  0
  6 29  1  0
 12 30  1  0
 12 31  1  0
 13 32  1  0
 13 33  1  0
 14 34  1  0
 14 35  1  0
 15 36  1  6
 16 37  1  0
 16 38  1  0
 16 39  1  0
 17 40  1  0
 17 41  1  0
 20 42  1  0
M  END
>  <Name>  (6) 
CHEMBL4206150

>  <Comment>  (6) 
 Schrodinger Suite 2021-4.

>  <s_m_entry_id>  (6) 
1495

>  <s_m_Source_Path>  (6) 
C:\Users\vinicius\Desktop

>  <s_m_Source_File>  (6) 
Ligands_Saureus_failomega.smi

>  <i_m_Source_File_Index>  (6) 
33

>  <r_epik_Ionization_Penalty>  (6) 
0.0006

>  <r_epik_State_Penalty>  (6) 
0.0004

>  <i_epik_Tot_Q>  (6) 
0

>  <i_f3d_flags>  (6) 
0

>  <s_m_job_name>  (6) 
Saureus_fail

>  <class_value>  (6) 
0

>  <FRED Chemgauss4 score>  (6) 
-12.510015

>  <Set>  (6) 
training

>  <HBA count>  (6) 
4

>  <HBD count>  (6) 
1

>  <ExactMolWt>  (6) 
329.11979784800053

>  <NumRotatableBounds>  (6) 
5

>  <FractionCsp3>  (6) 
0.35294117647058826

>  <TPSA>  (6) 
62.300000000000004

>  <LogP_WildmanCrippen>  (6) 
2.6601

>  <General_Cluster>  (6) 
2

>  <Biological_Cluster>  (6) 
2

>  <Physicochemical_Cluster>  (6) 
1

>  <Structural_Cluster>  (6) 
3

$$$$
CHEMBL3676405
     RDKit          3D

 45 48  0  0  0  0  0  0  0  0999 V2000
  109.9040   70.0868   32.3646 C   0  0  0  0  0  0  0  0  0  0  0  0
  110.0172   70.1319   33.7842 C   0  0  0  0  0  0  0  0  0  0  0  0
  108.6444   63.1960   42.9386 C   0  0  0  0  0  0  0  0  0  0  0  0
  108.6128   65.5698   43.0143 C   0  0  0  0  0  0  0  0  0  0  0  0
  109.8535   68.7945   31.8904 C   0  0  0  0  0  0  0  0  0  0  0  0
  109.1914   64.4078   42.5351 C   0  0  0  0  0  0  0  0  0  0  0  0
  107.5343   63.1815   43.7843 C   0  0  0  0  0  0  0  0  0  0  0  0
  110.0487   68.8722   34.3410 C   0  0  0  0  0  0  0  0  0  0  0  0
  107.0187   64.4056   44.2088 C   0  0  0  0  0  0  0  0  0  0  0  0
  105.1769   63.2972   45.4188 C   0  0  0  0  0  0  0  0  0  0  0  0
  110.3238   64.4540   41.6283 C   0  0  0  0  0  0  0  0  0  0  0  0
  110.6957   65.5190   40.8794 C   0  0  0  0  0  0  0  0  0  0  0  0
  111.8509   65.5146   39.9634 C   0  0  0  0  0  0  0  0  0  0  0  0
  106.9721   61.8991   44.3187 C   0  0  0  0  0  0  0  0  0  0  0  0
  105.4899   62.0455   44.6244 C   0  0  0  0  0  0  0  0  0  0  0  0
  112.6574   66.5754   37.7858 C   0  0  0  0  0  0  0  0  0  0  0  0
  110.6919   67.1984   38.3648 C   0  0  0  0  0  0  0  0  0  0  0  0
  111.7284   67.7204   37.3570 C   0  0  0  0  0  0  0  0  0  0  0  0
  110.1582   68.4938   35.7888 C   0  0  0  0  0  0  0  0  0  0  0  0
  107.5474   65.5981   43.8457 N   0  0  0  0  0  0  0  0  0  0  0  0
  105.9141   64.4151   45.0818 N   0  0  0  0  0  0  0  0  0  0  0  0
  111.7341   66.3323   38.8766 N   0  0  0  0  0  0  0  0  0  0  0  0
  104.2587   63.3213   46.2383 O   0  0  0  0  0  0  0  0  0  0  0  0
  112.8239   64.8056   40.2073 O   0  0  0  0  0  0  0  0  0  0  0  0
  111.3260   67.7171   35.9762 O   0  0  0  0  0  0  0  0  0  0  0  0
  109.9424   67.6424   33.1541 S   0  0  0  0  0  0  0  0  0  0  0  0
  109.8619   70.9791   31.7227 H   0  0  0  0  0  0  0  0  0  0  0  0
  110.0729   71.0631   34.3671 H   0  0  0  0  0  0  0  0  0  0  0  0
  109.0855   62.2498   42.5921 H   0  0  0  0  0  0  0  0  0  0  0  0
  109.0468   66.5302   42.6991 H   0  0  0  0  0  0  0  0  0  0  0  0
  109.7663   68.5334   30.8254 H   0  0  0  0  0  0  0  0  0  0  0  0
  110.9341   63.5429   41.5418 H   0  0  0  0  0  0  0  0  0  0  0  0
  110.1013   66.4412   40.9591 H   0  0  0  0  0  0  0  0  0  0  0  0
  107.1092   61.1053   43.5696 H   0  0  0  0  0  0  0  0  0  0  0  0
  107.5004   61.6430   45.2489 H   0  0  0  0  0  0  0  0  0  0  0  0
  105.1621   61.1699   45.2039 H   0  0  0  0  0  0  0  0  0  0  0  0
  104.9587   62.1203   43.6641 H   0  0  0  0  0  0  0  0  0  0  0  0
  112.7392   65.7528   37.0601 H   0  0  0  0  0  0  0  0  0  0  0  0
  113.7326   66.7318   37.9575 H   0  0  0  0  0  0  0  0  0  0  0  0
  110.3258   67.9501   39.0796 H   0  0  0  0  0  0  0  0  0  0  0  0
  109.7149   66.8070   38.0449 H   0  0  0  0  0  0  0  0  0  0  0  0
  112.0646   68.7675   37.3812 H   0  0  0  0  0  0  0  0  0  0  0  0
  110.2181   69.4037   36.4040 H   0  0  0  0  0  0  0  0  0  0  0  0
  109.2738   67.9123   36.0883 H   0  0  0  0  0  0  0  0  0  0  0  0
  105.6374   65.3162   45.4969 H   0  0  0  0  0  0  0  0  0  0  0  0
  1  2  1  0
  1  5  2  0
  2  8  2  0
  3  6  2  0
  3  7  1  0
  4  6  1  0
  4 20  2  0
  5 26  1  0
  6 11  1  0
  7  9  2  0
  7 14  1  0
  8 19  1  0
  8 26  1  0
  9 20  1  0
  9 21  1  0
 10 15  1  0
 10 21  1  0
 10 23  2  0
 11 12  2  0
 12 13  1  0
 13 22  1  0
 13 24  2  0
 14 15  1  0
 16 18  1  0
 16 22  1  0
 17 18  1  0
 17 22  1  0
 18 25  1  0
 19 25  1  0
  1 27  1  0
  2 28  1  0
  3 29  1  0
  4 30  1  0
  5 31  1  0
 11 32  1  0
 12 33  1  0
 14 34  1  0
 14 35  1  0
 15 36  1  0
 15 37  1  0
 16 38  1  0
 16 39  1  0
 17 40  1  0
 17 41  1  0
 18 42  1  0
 19 43  1  0
 19 44  1  0
 21 45  1  0
M  END
>  <Name>  (7) 
CHEMBL3676405

>  <Comment>  (7) 
 Schrodinger Suite 2021-4.

>  <s_m_entry_id>  (7) 
1079

>  <class_value>  (7) 
1

>  <s_m_Source_Path>  (7) 
C:\Users\vinicius\Desktop

>  <s_m_Source_File>  (7) 
Ligands_Saureus_o.sdf

>  <i_m_Source_File_Index>  (7) 
6

>  <r_lp_tautomer_probability>  (7) 
1

>  <r_epik_Ionization_Penalty>  (7) 
0.0002

>  <r_epik_State_Penalty>  (7) 
0

>  <i_epik_Tot_Q>  (7) 
0

>  <i_f3d_flags>  (7) 
0

>  <s_m_job_name>  (7) 
Saureus_o

>  <FRED Chemgauss4 score>  (7) 
-11.534451

>  <Set>  (7) 
training

>  <HBA count>  (7) 
5

>  <HBD count>  (7) 
1

>  <ExactMolWt>  (7) 
369.11471246800045

>  <NumRotatableBounds>  (7) 
5

>  <FractionCsp3>  (7) 
0.3157894736842105

>  <TPSA>  (7) 
71.53

>  <LogP_WildmanCrippen>  (7) 
2.4686000000000003

>  <General_Cluster>  (7) 
1

>  <Biological_Cluster>  (7) 
1

>  <Physicochemical_Cluster>  (7) 
4

>  <Structural_Cluster>  (7) 
2

$$$$
CHEMBL566666
     RDKit          3D

 65 69  0  0  0  0  0  0  0  0999 V2000
  111.5982   72.6443   34.5383 C   0  0  0  0  0  0  0  0  0  0  0  0
  111.5276   71.4745   35.2972 C   0  0  0  0  0  0  0  0  0  0  0  0
  110.7336   71.4781   32.6074 C   0  0  0  0  0  0  0  0  0  0  0  0
  110.3083   66.6471   39.0333 C   0  0  0  0  0  0  0  0  0  0  0  0
  112.3013   65.7023   39.9140 C   0  0  0  0  0  0  0  0  0  0  0  0
  110.6500   70.2755   33.3500 C   0  0  0  0  0  0  0  0  0  0  0  0
  111.5215   66.0070   38.8124 C   0  0  0  0  0  0  0  0  0  0  0  0
  109.9062   66.9431   40.3364 C   0  0  0  0  0  0  0  0  0  0  0  0
  110.2055   68.9672   32.9613 C   0  0  0  0  0  0  0  0  0  0  0  0
  111.2058   72.6485   33.2074 C   0  0  0  0  0  0  0  0  0  0  0  0
  111.0511   70.2964   34.6893 C   0  0  0  0  0  0  0  0  0  0  0  0
  110.2773   68.0519   33.9843 C   0  0  0  0  0  0  0  0  0  0  0  0
  110.7575   66.5911   41.3796 C   0  0  0  0  0  0  0  0  0  0  0  0
  109.1482   67.4121   43.0667 C   0  0  0  0  0  0  0  0  0  0  0  0
  111.9630   65.6801   37.4691 C   0  0  0  0  0  0  0  0  0  0  0  0
  111.1611   65.5858   36.3820 C   0  0  0  0  0  0  0  0  0  0  0  0
  111.7325   65.2087   35.0555 C   0  0  0  0  0  0  0  0  0  0  0  0
  108.6477   67.7078   40.6196 C   0  0  0  0  0  0  0  0  0  0  0  0
  107.4574   65.9070   41.9529 C   0  0  0  0  0  0  0  0  0  0  0  0
  106.9073   68.3607   42.2964 C   0  0  0  0  0  0  0  0  0  0  0  0
  106.5700   65.5722   43.1450 C   0  0  0  0  0  0  0  0  0  0  0  0
  105.9786   67.9770   43.4437 C   0  0  0  0  0  0  0  0  0  0  0  0
  108.0354   67.3443   41.9950 C   0  0  0  0  0  0  0  0  0  0  0  0
  109.7170   68.6352   31.5979 C   0  0  0  0  0  0  0  0  0  0  0  0
  111.5620   65.3854   32.6028 C   0  0  0  0  0  0  0  0  0  0  0  0
  104.4483   66.2036   44.2854 C   0  0  0  0  0  0  0  0  0  0  0  0
  109.9049   66.5974   33.9741 C   0  0  0  0  0  0  0  0  0  0  0  0
  111.9533   65.9854   41.1891 N   0  0  0  0  0  0  0  0  0  0  0  0
  110.3822   66.9097   42.6962 N   0  0  0  0  0  0  0  0  0  0  0  0
  111.0820   65.7317   33.9344 N   0  0  0  0  0  0  0  0  0  0  0  0
  105.4575   66.5816   43.2360 N   0  0  0  0  0  4  0  0  0  0  0  0
  108.9409   67.8107   44.2136 O   0  0  0  0  0  0  0  0  0  0  0  0
  112.7069   64.4571   35.0005 O   0  0  0  0  0  0  0  0  0  0  0  0
  111.2797   73.7792   32.4926 F   0  0  0  0  0  0  0  0  0  0  0  0
  110.8765   68.7450   35.4216 S   0  0  0  0  0  0  0  0  0  0  0  0
  111.9685   73.5715   34.9999 H   0  0  0  0  0  0  0  0  0  0  0  0
  111.8389   71.4728   36.3522 H   0  0  0  0  0  0  0  0  0  0  0  0
  110.4250   71.4912   31.5517 H   0  0  0  0  0  0  0  0  0  0  0  0
  109.6662   66.9200   38.1829 H   0  0  0  0  0  0  0  0  0  0  0  0
  113.2639   65.1986   39.7415 H   0  0  0  0  0  0  0  0  0  0  0  0
  113.0371   65.4936   37.3220 H   0  0  0  0  0  0  0  0  0  0  0  0
  110.0840   65.7880   36.4768 H   0  0  0  0  0  0  0  0  0  0  0  0
  108.8773   68.7835   40.6079 H   0  0  0  0  0  0  0  0  0  0  0  0
  107.9129   67.4451   39.8443 H   0  0  0  0  0  0  0  0  0  0  0  0
  108.2959   65.1953   41.9326 H   0  0  0  0  0  0  0  0  0  0  0  0
  106.8287   65.8380   41.0529 H   0  0  0  0  0  0  0  0  0  0  0  0
  106.2977   68.4722   41.3876 H   0  0  0  0  0  0  0  0  0  0  0  0
  107.4078   69.2901   42.6059 H   0  0  0  0  0  0  0  0  0  0  0  0
  106.1439   64.5665   43.0149 H   0  0  0  0  0  0  0  0  0  0  0  0
  107.1677   65.5983   44.0681 H   0  0  0  0  0  0  0  0  0  0  0  0
  106.5334   68.0216   44.3925 H   0  0  0  0  0  0  0  0  0  0  0  0
  105.1321   68.6788   43.4744 H   0  0  0  0  0  0  0  0  0  0  0  0
  108.8094   68.0184   31.6737 H   0  0  0  0  0  0  0  0  0  0  0  0
  109.4851   69.5636   31.0553 H   0  0  0  0  0  0  0  0  0  0  0  0
  110.4948   68.0779   31.0553 H   0  0  0  0  0  0  0  0  0  0  0  0
  112.4513   64.7438   32.6890 H   0  0  0  0  0  0  0  0  0  0  0  0
  110.7730   64.8471   32.0571 H   0  0  0  0  0  0  0  0  0  0  0  0
  111.8240   66.3039   32.0571 H   0  0  0  0  0  0  0  0  0  0  0  0
  104.8799   66.3652   45.2842 H   0  0  0  0  0  0  0  0  0  0  0  0
  103.5485   66.8256   44.1697 H   0  0  0  0  0  0  0  0  0  0  0  0
  104.1785   65.1435   44.1697 H   0  0  0  0  0  0  0  0  0  0  0  0
  109.3285   66.3719   34.8835 H   0  0  0  0  0  0  0  0  0  0  0  0
  109.3105   66.4049   33.0687 H   0  0  0  0  0  0  0  0  0  0  0  0
  111.0780   66.7577   43.4403 H   0  0  0  0  0  0  0  0  0  0  0  0
  104.9716   66.5748   42.3278 H   0  0  0  0  0  0  0  0  0  0  0  0
  1  2  2  0
  1 10  1  0
  2 11  1  0
  3  6  1  0
  3 10  2  0
  4  7  2  0
  4  8  1  0
  5  7  1  0
  5 28  2  0
  6  9  1  0
  6 11  2  0
  7 15  1  0
  8 13  2  0
  8 18  1  0
  9 12  2  0
  9 24  1  0
 10 34  1  0
 11 35  1  0
 12 27  1  0
 12 35  1  0
 13 28  1  0
 13 29  1  0
 14 23  1  0
 14 29  1  0
 14 32  2  0
 15 16  2  0
 16 17  1  0
 17 30  1  0
 17 33  2  0
 18 23  1  0
 19 21  1  0
 19 23  1  0
 20 22  1  0
 20 23  1  0
 21 31  1  0
 22 31  1  0
 25 30  1  0
 26 31  1  0
 27 30  1  0
  1 36  1  0
  2 37  1  0
  3 38  1  0
  4 39  1  0
  5 40  1  0
 15 41  1  0
 16 42  1  0
 18 43  1  0
 18 44  1  0
 19 45  1  0
 19 46  1  0
 20 47  1  0
 20 48  1  0
 21 49  1  0
 21 50  1  0
 22 51  1  0
 22 52  1  0
 24 53  1  0
 24 54  1  0
 24 55  1  0
 25 56  1  0
 25 57  1  0
 25 58  1  0
 26 59  1  0
 26 60  1  0
 26 61  1  0
 27 62  1  0
 27 63  1  0
 29 64  1  0
 31 65  1  0
M  CHG  1  31   1
M  END
>  <Name>  (8) 
CHEMBL566666

>  <Comment>  (8) 
 Schrodinger Suite 2021-4.

>  <s_m_entry_id>  (8) 
1089

>  <class_value>  (8) 
1

>  <s_m_Source_Path>  (8) 
C:\Users\vinicius\Desktop

>  <s_m_Source_File>  (8) 
Ligands_Saureus_o.sdf

>  <i_m_Source_File_Index>  (8) 
14

>  <r_epik_Ionization_Penalty>  (8) 
0.0062

>  <r_epik_State_Penalty>  (8) 
0.0045

>  <i_epik_Tot_Q>  (8) 
1

>  <i_f3d_flags>  (8) 
0

>  <s_m_job_name>  (8) 
Saureus_o

>  <FRED Chemgauss4 score>  (8) 
-19.212858

>  <Set>  (8) 
training

>  <HBA count>  (8) 
4

>  <HBD count>  (8) 
2

>  <ExactMolWt>  (8) 
493.20680184009086

>  <NumRotatableBounds>  (8) 
7

>  <FractionCsp3>  (8) 
0.37037037037037035

>  <TPSA>  (8) 
66.74000000000001

>  <LogP_WildmanCrippen>  (8) 
3.205120000000001

>  <General_Cluster>  (8) 
1

>  <Biological_Cluster>  (8) 
1

>  <Physicochemical_Cluster>  (8) 
4

>  <Structural_Cluster>  (8) 
2

$$$$
CHEMBL4205014
     RDKit          3D

 35 37  0  0  1  0  0  0  0  0999 V2000
  111.8679   67.4030   38.8856 C   0  0  0  0  0  0  0  0  0  0  0  0
  112.2467   66.5027   39.8813 C   0  0  0  0  0  0  0  0  0  0  0  0
  111.2332   66.9412   37.7325 C   0  0  0  0  0  0  0  0  0  0  0  0
  111.9910   65.1406   39.7239 C   0  0  0  0  0  0  0  0  0  0  0  0
  111.1477   71.0636   34.1299 C   0  0  0  0  0  0  0  0  0  0  0  0
  111.2638   71.6623   32.8929 C   0  0  0  0  0  0  0  0  0  0  0  0
  110.9775   65.5791   37.5751 C   0  0  0  0  0  0  0  0  0  0  0  0
  111.3564   64.6787   38.5708 C   0  0  0  0  0  0  0  0  0  0  0  0
  110.5951   69.3482   32.8801 C   0  0  0  0  0  0  0  0  0  0  0  0
  111.0741   65.4928   35.0831 C   0  0  0  0  0  0  0  0  0  0  0  0
  108.7916   67.5823   33.0336 C   0  0  0  0  0  0  0  0  0  0  0  0
  109.0967   66.9128   34.3674 C   0  0  0  0  0  0  0  0  0  0  0  0
  111.0527   66.7992   32.9682 C   0  0  0  0  0  0  0  0  0  0  0  0
  110.1726   67.9499   32.4667 C   0  0  2  0  0  0  0  0  0  0  0  0
  110.2950   65.1230   36.3198 C   0  0  0  0  0  0  0  0  0  0  0  0
  110.7640   69.7368   34.1245 N   0  0  0  0  0  0  0  0  0  0  0  0
  110.4301   66.3466   34.2052 N   0  0  0  0  0  0  0  0  0  0  0  0
  112.2052   65.0402   34.9000 O   0  0  0  0  0  0  0  0  0  0  0  0
  110.8811   70.5268   31.6659 S   0  0  0  0  0  0  0  0  0  0  0  0
  111.0564   62.9864   38.4114 Cl  0  0  0  0  0  0  0  0  0  0  0  0
  112.0697   68.4772   39.0097 H   0  0  0  0  0  0  0  0  0  0  0  0
  112.7471   66.8669   40.7907 H   0  0  0  0  0  0  0  0  0  0  0  0
  110.9343   67.6512   36.9473 H   0  0  0  0  0  0  0  0  0  0  0  0
  112.2898   64.4306   40.5091 H   0  0  0  0  0  0  0  0  0  0  0  0
  111.3484   71.6094   35.0636 H   0  0  0  0  0  0  0  0  0  0  0  0
  111.5570   72.7083   32.7197 H   0  0  0  0  0  0  0  0  0  0  0  0
  108.2665   66.8884   32.3607 H   0  0  0  0  0  0  0  0  0  0  0  0
  108.1364   68.4589   33.1442 H   0  0  0  0  0  0  0  0  0  0  0  0
  109.0861   67.6512   35.1827 H   0  0  0  0  0  0  0  0  0  0  0  0
  108.3503   66.1478   34.6276 H   0  0  0  0  0  0  0  0  0  0  0  0
  111.0784   65.9843   32.2297 H   0  0  0  0  0  0  0  0  0  0  0  0
  112.0931   67.1192   33.1271 H   0  0  0  0  0  0  0  0  0  0  0  0
  110.2245   68.0276   31.3707 H   0  0  0  0  0  0  0  0  0  0  0  0
  110.1831   64.0293   36.3545 H   0  0  0  0  0  0  0  0  0  0  0  0
  109.3168   65.6232   36.2656 H   0  0  0  0  0  0  0  0  0  0  0  0
  1  2  2  0
  1  3  1  0
  2  4  1  0
  3  7  2  0
  4  8  2  0
  5  6  2  0
  5 16  1  0
  6 19  1  0
  7  8  1  0
  7 15  1  0
  8 20  1  0
  9 14  1  0
  9 16  2  0
  9 19  1  0
 10 15  1  0
 10 17  1  0
 10 18  2  0
 11 12  1  0
 11 14  1  0
 12 17  1  0
 13 14  1  0
 13 17  1  0
  1 21  1  0
  2 22  1  0
  3 23  1  0
  4 24  1  0
  5 25  1  0
  6 26  1  0
 11 27  1  0
 11 28  1  0
 12 29  1  0
 12 30  1  0
 13 31  1  0
 13 32  1  0
 14 33  1  6
 15 34  1  0
 15 35  1  0
M  END
>  <Name>  (9) 
CHEMBL4205014

>  <Comment>  (9) 
 Schrodinger Suite 2021-4.

>  <s_m_entry_id>  (9) 
1472

>  <s_m_Source_Path>  (9) 
C:\Users\vinicius\Desktop

>  <s_m_Source_File>  (9) 
Ligands_Saureus_failomega.smi

>  <i_m_Source_File_Index>  (9) 
25

>  <r_epik_Ionization_Penalty>  (9) 
0.0006

>  <r_epik_State_Penalty>  (9) 
0.0004

>  <i_epik_Tot_Q>  (9) 
0

>  <i_f3d_flags>  (9) 
0

>  <s_m_job_name>  (9) 
Saureus_fail

>  <class_value>  (9) 
0

>  <FRED Chemgauss4 score>  (9) 
-13.193884

>  <Set>  (9) 
training

>  <HBA count>  (9) 
3

>  <HBD count>  (9) 
0

>  <ExactMolWt>  (9) 
306.0593617800004

>  <NumRotatableBounds>  (9) 
3

>  <FractionCsp3>  (9) 
0.3333333333333333

>  <TPSA>  (9) 
33.2

>  <LogP_WildmanCrippen>  (9) 
3.355100000000003

>  <General_Cluster>  (9) 
2

>  <Biological_Cluster>  (9) 
2

>  <Physicochemical_Cluster>  (9) 
3

>  <Structural_Cluster>  (9) 
3

$$$$
CHEMBL3623413
     RDKit          3D

 36 38  0  0  0  0  0  0  0  0999 V2000
  107.4575   63.4051   45.3498 C   0  0  0  0  0  0  0  0  0  0  0  0
  108.0447   62.6438   44.3393 C   0  0  0  0  0  0  0  0  0  0  0  0
  107.4350   64.7964   45.2512 C   0  0  0  0  0  0  0  0  0  0  0  0
  109.1305   69.1751   34.1630 C   0  0  0  0  0  0  0  0  0  0  0  0
  108.6095   63.2736   43.2303 C   0  0  0  0  0  0  0  0  0  0  0  0
  107.9998   65.4262   44.1422 C   0  0  0  0  0  0  0  0  0  0  0  0
  109.8807   70.0985   34.8910 C   0  0  0  0  0  0  0  0  0  0  0  0
  109.3384   67.8080   34.3464 C   0  0  0  0  0  0  0  0  0  0  0  0
  108.5871   64.6649   43.1317 C   0  0  0  0  0  0  0  0  0  0  0  0
  111.0470   68.2878   35.9857 C   0  0  0  0  0  0  0  0  0  0  0  0
  110.8390   69.6549   35.8023 C   0  0  0  0  0  0  0  0  0  0  0  0
  110.2967   67.3644   35.2577 C   0  0  0  0  0  0  0  0  0  0  0  0
  111.5565   64.9009   39.2125 C   0  0  0  0  0  0  0  0  0  0  0  0
  110.6367   67.4905   38.8016 C   0  0  0  0  0  0  0  0  0  0  0  0
  111.5455   67.0645   37.9161 C   0  0  0  0  0  0  0  0  0  0  0  0
  110.6478   65.4701   40.0107 C   0  0  0  0  0  0  0  0  0  0  0  0
  112.0811   65.6904   38.0737 C   0  0  0  0  0  0  0  0  0  0  0  0
  109.1836   65.3307   41.9606 C   0  0  0  0  0  0  0  0  0  0  0  0
  110.0854   64.7765   41.1384 C   0  0  0  0  0  0  0  0  0  0  0  0
  112.9152   65.2254   37.3057 O   0  0  0  0  0  0  0  0  0  0  0  0
  110.1558   66.7486   39.8545 O   0  0  0  0  0  0  0  0  0  0  0  0
  111.9863   67.8523   36.8802 O   0  0  0  0  0  0  0  0  0  0  0  0
  111.7506   70.8232   36.6865 Cl  0  0  0  0  0  0  0  0  0  0  0  0
  110.5316   65.6667   35.4604 Cl  0  0  0  0  0  0  0  0  0  0  0  0
  107.0122   62.9084   46.2244 H   0  0  0  0  0  0  0  0  0  0  0  0
  108.0624   61.5467   44.4170 H   0  0  0  0  0  0  0  0  0  0  0  0
  106.9718   65.3968   46.0480 H   0  0  0  0  0  0  0  0  0  0  0  0
  108.3749   69.5249   33.4442 H   0  0  0  0  0  0  0  0  0  0  0  0
  109.0726   62.6732   42.4334 H   0  0  0  0  0  0  0  0  0  0  0  0
  107.9821   66.5233   44.0645 H   0  0  0  0  0  0  0  0  0  0  0  0
  109.7166   71.1765   34.7465 H   0  0  0  0  0  0  0  0  0  0  0  0
  108.7466   67.0798   33.7724 H   0  0  0  0  0  0  0  0  0  0  0  0
  111.9054   63.8740   39.3962 H   0  0  0  0  0  0  0  0  0  0  0  0
  110.2451   68.5109   38.6776 H   0  0  0  0  0  0  0  0  0  0  0  0
  108.8646   66.3610   41.7446 H   0  0  0  0  0  0  0  0  0  0  0  0
  110.4103   63.7441   41.3350 H   0  0  0  0  0  0  0  0  0  0  0  0
  1  2  2  0
  1  3  1  0
  2  5  1  0
  3  6  2  0
  4  7  2  0
  4  8  1  0
  5  9  2  0
  6  9  1  0
  7 11  1  0
  8 12  2  0
  9 18  1  0
 10 11  2  0
 10 12  1  0
 10 22  1  0
 11 23  1  0
 12 24  1  0
 13 16  2  0
 13 17  1  0
 14 15  2  0
 14 21  1  0
 15 17  1  0
 15 22  1  0
 16 19  1  0
 16 21  1  0
 17 20  2  0
 18 19  2  0
  1 25  1  0
  2 26  1  0
  3 27  1  0
  4 28  1  0
  5 29  1  0
  6 30  1  0
  7 31  1  0
  8 32  1  0
 13 33  1  0
 14 34  1  0
 18 35  1  0
 19 36  1  0
M  END
>  <Name>  (10) 
CHEMBL3623413

>  <Comment>  (10) 
 Schrodinger Suite 2021-4.

>  <s_m_entry_id>  (10) 
1243

>  <class_value>  (10) 
0

>  <s_m_Source_Path>  (10) 
C:\Users\vinicius\Desktop

>  <s_m_Source_File>  (10) 
Ligands_Saureus_o.sdf

>  <i_m_Source_File_Index>  (10) 
136

>  <r_lp_tautomer_probability>  (10) 
1

>  <r_epik_Ionization_Penalty>  (10) 
0

>  <r_epik_State_Penalty>  (10) 
0

>  <i_epik_Tot_Q>  (10) 
0

>  <i_f3d_flags>  (10) 
0

>  <s_m_job_name>  (10) 
Saureus_o

>  <FRED Chemgauss4 score>  (10) 
-12.763924

>  <Set>  (10) 
training

>  <HBA count>  (10) 
3

>  <HBD count>  (10) 
0

>  <ExactMolWt>  (10) 
358.0163496040003

>  <NumRotatableBounds>  (10) 
4

>  <FractionCsp3>  (10) 
0.0

>  <TPSA>  (10) 
39.44

>  <LogP_WildmanCrippen>  (10) 
5.909300000000002

>  <General_Cluster>  (10) 
4

>  <Biological_Cluster>  (10) 
2

>  <Physicochemical_Cluster>  (10) 
3

>  <Structural_Cluster>  (10) 
1

$$$$
CHEMBL3322708
     RDKit          3D

 48 51  0  0  0  0  0  0  0  0999 V2000
  112.9772   72.5515   32.6394 C   0  0  0  0  0  0  0  0  0  0  0  0
  112.1574   71.4688   32.3214 C   0  0  0  0  0  0  0  0  0  0  0  0
  112.5809   73.4624   33.6187 C   0  0  0  0  0  0  0  0  0  0  0  0
  109.9482   66.0846   39.2576 C   0  0  0  0  0  0  0  0  0  0  0  0
  110.5448   72.2078   33.9616 C   0  0  0  0  0  0  0  0  0  0  0  0
  112.2609   65.9233   39.7745 C   0  0  0  0  0  0  0  0  0  0  0  0
  111.2523   65.8699   38.8288 C   0  0  0  0  0  0  0  0  0  0  0  0
  109.6910   66.3240   40.6083 C   0  0  0  0  0  0  0  0  0  0  0  0
  110.9412   71.2969   32.9824 C   0  0  0  0  0  0  0  0  0  0  0  0
  111.3647   73.2906   34.2798 C   0  0  0  0  0  0  0  0  0  0  0  0
  110.7742   66.3522   41.4860 C   0  0  0  0  0  0  0  0  0  0  0  0
  109.2898   66.6774   43.4291 C   0  0  0  0  0  0  0  0  0  0  0  0
  111.5489   65.6128   37.4314 C   0  0  0  0  0  0  0  0  0  0  0  0
  110.7482   65.9172   36.3828 C   0  0  0  0  0  0  0  0  0  0  0  0
  111.0896   65.6270   34.9784 C   0  0  0  0  0  0  0  0  0  0  0  0
  108.3137   66.6546   41.0978 C   0  0  0  0  0  0  0  0  0  0  0  0
  108.1404   66.2320   42.5481 C   0  0  0  0  0  0  0  0  0  0  0  0
  109.7328   67.6756   34.1466 C   0  0  0  0  0  0  0  0  0  0  0  0
  110.6765   66.4966   32.6151 C   0  0  0  0  0  0  0  0  0  0  0  0
  109.9437   67.8488   32.6321 C   0  0  0  0  0  0  0  0  0  0  0  0
  110.7770   69.0507   32.2187 C   0  0  0  0  0  0  0  0  0  0  0  0
  112.0551   66.1662   41.0882 N   0  0  0  0  0  0  0  0  0  0  0  0
  110.5415   66.6163   42.8493 N   0  0  0  0  0  0  0  0  0  0  0  0
  110.5695   66.4951   34.0617 N   0  0  0  0  0  0  0  0  0  0  0  0
  109.1111   66.9788   44.6092 O   0  0  0  0  0  0  0  0  0  0  0  0
  111.7955   64.6589   34.7070 O   0  0  0  0  0  0  0  0  0  0  0  0
  110.1343   70.2330   32.6688 O   0  0  0  0  0  0  0  0  0  0  0  0
  110.9849   74.1646   35.2210 F   0  0  0  0  0  0  0  0  0  0  0  0
  113.9362   72.6871   32.1180 H   0  0  0  0  0  0  0  0  0  0  0  0
  112.4700   70.7504   31.5493 H   0  0  0  0  0  0  0  0  0  0  0  0
  113.2275   74.3162   33.8696 H   0  0  0  0  0  0  0  0  0  0  0  0
  109.1200   66.0659   38.5338 H   0  0  0  0  0  0  0  0  0  0  0  0
  109.5857   72.0723   34.4829 H   0  0  0  0  0  0  0  0  0  0  0  0
  113.2944   65.7578   39.4363 H   0  0  0  0  0  0  0  0  0  0  0  0
  112.5095   65.1275   37.2041 H   0  0  0  0  0  0  0  0  0  0  0  0
  109.7869   66.4098   36.5910 H   0  0  0  0  0  0  0  0  0  0  0  0
  108.1529   67.7398   41.0167 H   0  0  0  0  0  0  0  0  0  0  0  0
  107.5810   66.1120   40.4824 H   0  0  0  0  0  0  0  0  0  0  0  0
  108.0706   65.1350   42.5889 H   0  0  0  0  0  0  0  0  0  0  0  0
  107.2263   66.7126   42.9269 H   0  0  0  0  0  0  0  0  0  0  0  0
  110.1456   68.4875   34.7634 H   0  0  0  0  0  0  0  0  0  0  0  0
  108.7273   67.6422   34.5914 H   0  0  0  0  0  0  0  0  0  0  0  0
  110.1299   65.6845   32.1135 H   0  0  0  0  0  0  0  0  0  0  0  0
  111.6427   66.3676   32.1055 H   0  0  0  0  0  0  0  0  0  0  0  0
  109.0938   68.0411   31.9608 H   0  0  0  0  0  0  0  0  0  0  0  0
  111.7773   68.9794   32.6706 H   0  0  0  0  0  0  0  0  0  0  0  0
  110.8776   69.0753   31.1236 H   0  0  0  0  0  0  0  0  0  0  0  0
  111.3597   66.7745   43.4546 H   0  0  0  0  0  0  0  0  0  0  0  0
  1  2  2  0
  1  3  1  0
  2  9  1  0
  3 10  2  0
  4  7  2  0
  4  8  1  0
  5  9  2  0
  5 10  1  0
  6  7  1  0
  6 22  2  0
  7 13  1  0
  8 11  2  0
  8 16  1  0
  9 27  1  0
 10 28  1  0
 11 22  1  0
 11 23  1  0
 12 17  1  0
 12 23  1  0
 12 25  2  0
 13 14  2  0
 14 15  1  0
 15 24  1  0
 15 26  2  0
 16 17  1  0
 18 20  1  0
 18 24  1  0
 19 20  1  0
 19 24  1  0
 20 21  1  0
 21 27  1  0
  1 29  1  0
  2 30  1  0
  3 31  1  0
  4 32  1  0
  5 33  1  0
  6 34  1  0
 13 35  1  0
 14 36  1  0
 16 37  1  0
 16 38  1  0
 17 39  1  0
 17 40  1  0
 18 41  1  0
 18 42  1  0
 19 43  1  0
 19 44  1  0
 20 45  1  0
 21 46  1  0
 21 47  1  0
 23 48  1  0
M  END
>  <Name>  (11) 
CHEMBL3322708

>  <Comment>  (11) 
 Schrodinger Suite 2021-4.

>  <s_m_entry_id>  (11) 
1169

>  <class_value>  (11) 
1

>  <s_m_Source_Path>  (11) 
C:\Users\vinicius\Desktop

>  <s_m_Source_File>  (11) 
Ligands_Saureus_o.sdf

>  <i_m_Source_File_Index>  (11) 
75

>  <r_lp_tautomer_probability>  (11) 
1

>  <r_epik_Ionization_Penalty>  (11) 
0.0002

>  <r_epik_State_Penalty>  (11) 
0

>  <i_epik_Tot_Q>  (11) 
0

>  <i_f3d_flags>  (11) 
0

>  <s_m_job_name>  (11) 
Saureus_o

>  <FRED Chemgauss4 score>  (11) 
-13.781589

>  <Set>  (11) 
training

>  <HBA count>  (11) 
4

>  <HBD count>  (11) 
1

>  <ExactMolWt>  (11) 
381.14886972000056

>  <NumRotatableBounds>  (11) 
5

>  <FractionCsp3>  (11) 
0.2857142857142857

>  <TPSA>  (11) 
71.53

>  <LogP_WildmanCrippen>  (11) 
2.6560000000000006

>  <General_Cluster>  (11) 
1

>  <Biological_Cluster>  (11) 
1

>  <Physicochemical_Cluster>  (11) 
4

>  <Structural_Cluster>  (11) 
2

$$$$
CHEMBL433830
     RDKit          3D

 19 20  0  0  0  0  0  0  0  0999 V2000
  110.9013   67.0675   38.0908 C   0  0  0  0  0  0  0  0  0  0  0  0
  110.7499   67.1839   35.0273 C   0  0  0  0  0  0  0  0  0  0  0  0
  111.0856   66.7370   39.4153 C   0  0  0  0  0  0  0  0  0  0  0  0
  111.8005   64.9323   37.9048 C   0  0  0  0  0  0  0  0  0  0  0  0
  111.4124   65.5213   33.7414 C   0  0  0  0  0  0  0  0  0  0  0  0
  111.3153   66.0220   37.2157 C   0  0  0  0  0  0  0  0  0  0  0  0
  111.2218   66.1291   35.7724 C   0  0  0  0  0  0  0  0  0  0  0  0
  110.5154   67.5409   32.5578 C   0  0  0  0  0  0  0  0  0  0  0  0
  111.6330   65.0974   34.9660 N   0  0  0  0  0  0  0  0  0  0  0  0
  110.8787   66.7800   33.7282 N   0  0  0  0  0  0  0  0  0  0  0  0
  111.7554   65.1718   39.5998 S   0  0  0  0  0  0  0  0  0  0  0  0
  110.4836   68.0259   37.7489 H   0  0  0  0  0  0  0  0  0  0  0  0
  110.3554   68.1423   35.3959 H   0  0  0  0  0  0  0  0  0  0  0  0
  110.8324   67.4003   40.2555 H   0  0  0  0  0  0  0  0  0  0  0  0
  112.1730   64.0163   37.4230 H   0  0  0  0  0  0  0  0  0  0  0  0
  111.6307   64.9345   32.8370 H   0  0  0  0  0  0  0  0  0  0  0  0
  110.0605   68.4937   32.8665 H   0  0  0  0  0  0  0  0  0  0  0  0
  111.4148   67.7416   31.9572 H   0  0  0  0  0  0  0  0  0  0  0  0
  109.7938   66.9677   31.9572 H   0  0  0  0  0  0  0  0  0  0  0  0
  1  3  2  0
  1  6  1  0
  2  7  2  0
  2 10  1  0
  3 11  1  0
  4  6  2  0
  4 11  1  0
  5  9  2  0
  5 10  1  0
  6  7  1  0
  7  9  1  0
  8 10  1  0
  1 12  1  0
  2 13  1  0
  3 14  1  0
  4 15  1  0
  5 16  1  0
  8 17  1  0
  8 18  1  0
  8 19  1  0
M  END
>  <Name>  (12) 
CHEMBL433830

>  <Comment>  (12) 
 Schrodinger Suite 2021-4.

>  <s_m_entry_id>  (12) 
1322

>  <class_value>  (12) 
0

>  <s_m_Source_Path>  (12) 
C:\Users\vinicius\Desktop

>  <s_m_Source_File>  (12) 
Ligands_Saureus_o.sdf

>  <i_m_Source_File_Index>  (12) 
191

>  <r_lp_tautomer_probability>  (12) 
1

>  <r_epik_Ionization_Penalty>  (12) 
0.5829

>  <r_epik_State_Penalty>  (12) 
0.5958

>  <i_epik_Tot_Q>  (12) 
0

>  <i_f3d_flags>  (12) 
0

>  <s_m_job_name>  (12) 
Saureus_o

>  <FRED Chemgauss4 score>  (12) 
-8.900753

>  <Set>  (12) 
training

>  <HBA count>  (12) 
3

>  <HBD count>  (12) 
0

>  <ExactMolWt>  (12) 
164.040819256

>  <NumRotatableBounds>  (12) 
2

>  <FractionCsp3>  (12) 
0.125

>  <TPSA>  (12) 
17.82

>  <LogP_WildmanCrippen>  (12) 
2.1486

>  <General_Cluster>  (12) 
4

>  <Biological_Cluster>  (12) 
2

>  <Physicochemical_Cluster>  (12) 
3

>  <Structural_Cluster>  (12) 
1

$$$$
CHEMBL3322674
     RDKit          3D

 45 48  0  0  0  0  0  0  0  0999 V2000
  106.5629   62.3337   44.7182 C   0  0  0  0  0  0  0  0  0  0  0  0
  107.6743   63.0089   45.2227 C   0  0  0  0  0  0  0  0  0  0  0  0
  105.8433   62.8737   43.6522 C   0  0  0  0  0  0  0  0  0  0  0  0
  108.0660   64.2242   44.6613 C   0  0  0  0  0  0  0  0  0  0  0  0
  106.2351   64.0890   43.0908 C   0  0  0  0  0  0  0  0  0  0  0  0
  111.1920   69.0377   36.8720 C   0  0  0  0  0  0  0  0  0  0  0  0
  110.4231   67.7141   35.0558 C   0  0  0  0  0  0  0  0  0  0  0  0
  110.7736   67.8030   36.3913 C   0  0  0  0  0  0  0  0  0  0  0  0
  111.2663   70.1312   36.0080 C   0  0  0  0  0  0  0  0  0  0  0  0
  107.3465   64.7643   43.5953 C   0  0  0  0  0  0  0  0  0  0  0  0
  110.8977   69.9400   34.6768 C   0  0  0  0  0  0  0  0  0  0  0  0
  111.4949   72.2623   34.0977 C   0  0  0  0  0  0  0  0  0  0  0  0
  110.6922   66.6470   37.2654 C   0  0  0  0  0  0  0  0  0  0  0  0
  110.6203   66.6797   38.6170 C   0  0  0  0  0  0  0  0  0  0  0  0
  110.5487   65.4753   39.4643 C   0  0  0  0  0  0  0  0  0  0  0  0
  111.6201   71.5003   36.5043 C   0  0  0  0  0  0  0  0  0  0  0  0
  112.2648   72.3245   35.4012 C   0  0  0  0  0  0  0  0  0  0  0  0
  109.2049   66.7952   41.1876 C   0  0  0  0  0  0  0  0  0  0  0  0
  109.5105   64.7454   41.7277 C   0  0  0  0  0  0  0  0  0  0  0  0
  109.0536   65.9985   42.4916 C   0  0  0  0  0  0  0  0  0  0  0  0
  110.4674   68.7517   34.1906 N   0  0  0  0  0  0  0  0  0  0  0  0
  110.9411   71.0348   33.7924 N   0  0  0  0  0  0  0  0  0  0  0  0
  109.8704   65.6301   40.6387 N   0  0  0  0  0  0  0  0  0  0  0  0
  111.4576   73.2244   33.3307 O   0  0  0  0  0  0  0  0  0  0  0  0
  111.0803   64.4320   39.0927 O   0  0  0  0  0  0  0  0  0  0  0  0
  107.7279   65.9526   43.0474 O   0  0  0  0  0  0  0  0  0  0  0  0
  106.2539   61.3753   45.1610 H   0  0  0  0  0  0  0  0  0  0  0  0
  108.2418   62.5830   46.0632 H   0  0  0  0  0  0  0  0  0  0  0  0
  104.9669   62.3412   43.2543 H   0  0  0  0  0  0  0  0  0  0  0  0
  108.9424   64.7568   45.0592 H   0  0  0  0  0  0  0  0  0  0  0  0
  105.6676   64.5149   42.2502 H   0  0  0  0  0  0  0  0  0  0  0  0
  111.4642   69.1531   37.9315 H   0  0  0  0  0  0  0  0  0  0  0  0
  110.0875   66.7384   34.6744 H   0  0  0  0  0  0  0  0  0  0  0  0
  110.6886   65.6564   36.7872 H   0  0  0  0  0  0  0  0  0  0  0  0
  110.6150   67.6621   39.1118 H   0  0  0  0  0  0  0  0  0  0  0  0
  110.7058   72.0075   36.8460 H   0  0  0  0  0  0  0  0  0  0  0  0
  112.3355   71.4007   37.3340 H   0  0  0  0  0  0  0  0  0  0  0  0
  113.2823   71.9446   35.2272 H   0  0  0  0  0  0  0  0  0  0  0  0
  112.2728   73.3735   35.7322 H   0  0  0  0  0  0  0  0  0  0  0  0
  108.2565   67.0577   40.6960 H   0  0  0  0  0  0  0  0  0  0  0  0
  109.6668   67.7933   41.1658 H   0  0  0  0  0  0  0  0  0  0  0  0
  110.3560   64.2105   42.1848 H   0  0  0  0  0  0  0  0  0  0  0  0
  108.8476   63.8801   41.5797 H   0  0  0  0  0  0  0  0  0  0  0  0
  109.5600   66.3146   43.4155 H   0  0  0  0  0  0  0  0  0  0  0  0
  110.5324   70.9118   32.8550 H   0  0  0  0  0  0  0  0  0  0  0  0
  1  2  2  0
  1  3  1  0
  2  4  1  0
  3  5  2  0
  4 10  2  0
  5 10  1  0
  6  8  2  0
  6  9  1  0
  7  8  1  0
  7 21  2  0
  8 13  1  0
  9 11  2  0
  9 16  1  0
 10 26  1  0
 11 21  1  0
 11 22  1  0
 12 17  1  0
 12 22  1  0
 12 24  2  0
 13 14  2  0
 14 15  1  0
 15 23  1  0
 15 25  2  0
 16 17  1  0
 18 20  1  0
 18 23  1  0
 19 20  1  0
 19 23  1  0
 20 26  1  0
  1 27  1  0
  2 28  1  0
  3 29  1  0
  4 30  1  0
  5 31  1  0
  6 32  1  0
  7 33  1  0
 13 34  1  0
 14 35  1  0
 16 36  1  0
 16 37  1  0
 17 38  1  0
 17 39  1  0
 18 40  1  0
 18 41  1  0
 19 42  1  0
 19 43  1  0
 20 44  1  0
 22 45  1  0
M  END
>  <Name>  (13) 
CHEMBL3322674

>  <Comment>  (13) 
 Schrodinger Suite 2021-4.

>  <s_m_entry_id>  (13) 
1198

>  <class_value>  (13) 
1

>  <s_m_Source_Path>  (13) 
C:\Users\vinicius\Desktop

>  <s_m_Source_File>  (13) 
Ligands_Saureus_o.sdf

>  <i_m_Source_File_Index>  (13) 
98

>  <r_lp_tautomer_probability>  (13) 
1

>  <r_epik_Ionization_Penalty>  (13) 
0.0002

>  <r_epik_State_Penalty>  (13) 
0

>  <i_epik_Tot_Q>  (13) 
0

>  <i_f3d_flags>  (13) 
0

>  <s_m_job_name>  (13) 
Saureus_o

>  <FRED Chemgauss4 score>  (13) 
-11.635105

>  <Set>  (13) 
training

>  <HBA count>  (13) 
4

>  <HBD count>  (13) 
1

>  <ExactMolWt>  (13) 
349.1426414680005

>  <NumRotatableBounds>  (13) 
4

>  <FractionCsp3>  (13) 
0.25

>  <TPSA>  (13) 
71.53

>  <LogP_WildmanCrippen>  (13) 
2.2693

>  <General_Cluster>  (13) 
1

>  <Biological_Cluster>  (13) 
1

>  <Physicochemical_Cluster>  (13) 
4

>  <Structural_Cluster>  (13) 
2

$$$$
CHEMBL297636
     RDKit          3D

 53 56  0  0  0  0  0  0  0  0999 V2000
  112.1599   71.0125   35.8592 C   0  0  0  0  0  0  0  0  0  0  0  0
  112.1349   72.0465   34.9254 C   0  0  0  0  0  0  0  0  0  0  0  0
  111.4285   69.8382   35.6474 C   0  0  0  0  0  0  0  0  0  0  0  0
  111.3807   71.9410   33.7532 C   0  0  0  0  0  0  0  0  0  0  0  0
  110.1122   67.1839   39.6251 C   0  0  0  0  0  0  0  0  0  0  0  0
  112.0776   66.0919   40.3908 C   0  0  0  0  0  0  0  0  0  0  0  0
  110.6607   69.7091   34.4730 C   0  0  0  0  0  0  0  0  0  0  0  0
  111.2766   66.4845   39.3331 C   0  0  0  0  0  0  0  0  0  0  0  0
  109.7757   67.4503   40.9531 C   0  0  0  0  0  0  0  0  0  0  0  0
  109.8201   68.6894   33.9451 C   0  0  0  0  0  0  0  0  0  0  0  0
  110.6545   70.7614   33.5549 C   0  0  0  0  0  0  0  0  0  0  0  0
  109.3289   69.1342   32.7394 C   0  0  0  0  0  0  0  0  0  0  0  0
  110.6445   67.0078   41.9500 C   0  0  0  0  0  0  0  0  0  0  0  0
  109.1395   67.8182   43.7285 C   0  0  0  0  0  0  0  0  0  0  0  0
  111.6489   66.1881   37.9618 C   0  0  0  0  0  0  0  0  0  0  0  0
  110.8038   66.1849   36.9039 C   0  0  0  0  0  0  0  0  0  0  0  0
  111.3032   65.8303   35.5426 C   0  0  0  0  0  0  0  0  0  0  0  0
  108.5810   68.2827   41.3076 C   0  0  0  0  0  0  0  0  0  0  0  0
  108.0484   67.9052   42.6809 C   0  0  0  0  0  0  0  0  0  0  0  0
  108.4163   68.4739   31.7816 C   0  0  0  0  0  0  0  0  0  0  0  0
  109.5585   71.1961   31.3455 C   0  0  0  0  0  0  0  0  0  0  0  0
  111.0543   66.1171   33.1070 C   0  0  0  0  0  0  0  0  0  0  0  0
  109.5229   67.3653   34.5876 C   0  0  0  0  0  0  0  0  0  0  0  0
  111.7947   66.3426   41.6886 N   0  0  0  0  0  0  0  0  0  0  0  0
  109.8379   70.3847   32.5125 N   0  0  0  0  0  0  0  0  0  0  0  0
  110.3382   67.2865   43.2957 N   0  0  0  0  0  0  0  0  0  0  0  0
  110.6444   66.4355   34.4687 N   0  0  0  0  0  0  0  0  0  0  0  0
  108.9234   68.1170   44.9029 O   0  0  0  0  0  0  0  0  0  0  0  0
  112.2288   65.0266   35.4207 O   0  0  0  0  0  0  0  0  0  0  0  0
  112.7616   71.1205   36.7737 H   0  0  0  0  0  0  0  0  0  0  0  0
  112.7178   72.9601   35.1137 H   0  0  0  0  0  0  0  0  0  0  0  0
  111.4528   69.0259   36.3887 H   0  0  0  0  0  0  0  0  0  0  0  0
  111.3589   72.7552   33.0139 H   0  0  0  0  0  0  0  0  0  0  0  0
  109.4567   67.5270   38.8111 H   0  0  0  0  0  0  0  0  0  0  0  0
  113.0020   65.5416   40.1613 H   0  0  0  0  0  0  0  0  0  0  0  0
  112.7040   65.9463   37.7660 H   0  0  0  0  0  0  0  0  0  0  0  0
  109.7447   66.4447   37.0482 H   0  0  0  0  0  0  0  0  0  0  0  0
  108.8695   69.3442   41.3119 H   0  0  0  0  0  0  0  0  0  0  0  0
  107.7924   68.1033   40.5620 H   0  0  0  0  0  0  0  0  0  0  0  0
  107.5514   66.9266   42.6086 H   0  0  0  0  0  0  0  0  0  0  0  0
  107.3496   68.6947   42.9944 H   0  0  0  0  0  0  0  0  0  0  0  0
  107.6457   67.9163   32.3342 H   0  0  0  0  0  0  0  0  0  0  0  0
  107.9356   69.2347   31.1490 H   0  0  0  0  0  0  0  0  0  0  0  0
  108.9886   67.7794   31.1490 H   0  0  0  0  0  0  0  0  0  0  0  0
  109.2158   72.1915   31.6645 H   0  0  0  0  0  0  0  0  0  0  0  0
  110.4730   71.2989   30.7429 H   0  0  0  0  0  0  0  0  0  0  0  0
  108.7746   70.7141   30.7429 H   0  0  0  0  0  0  0  0  0  0  0  0
  111.9228   65.4425   33.1338 H   0  0  0  0  0  0  0  0  0  0  0  0
  110.2238   65.6249   32.5797 H   0  0  0  0  0  0  0  0  0  0  0  0
  111.3257   67.0435   32.5797 H   0  0  0  0  0  0  0  0  0  0  0  0
  109.3081   67.5282   35.6540 H   0  0  0  0  0  0  0  0  0  0  0  0
  108.6584   66.9231   34.0708 H   0  0  0  0  0  0  0  0  0  0  0  0
  111.0562   67.0800   44.0047 H   0  0  0  0  0  0  0  0  0  0  0  0
  1  2  2  0
  1  3  1  0
  2  4  1  0
  3  7  2  0
  4 11  2  0
  5  8  2  0
  5  9  1  0
  6  8  1  0
  6 24  2  0
  7 10  1  0
  7 11  1  0
  8 15  1  0
  9 13  2  0
  9 18  1  0
 10 12  2  0
 10 23  1  0
 11 25  1  0
 12 20  1  0
 12 25  1  0
 13 24  1  0
 13 26  1  0
 14 19  1  0
 14 26  1  0
 14 28  2  0
 15 16  2  0
 16 17  1  0
 17 27  1  0
 17 29  2  0
 18 19  1  0
 21 25  1  0
 22 27  1  0
 23 27  1  0
  1 30  1  0
  2 31  1  0
  3 32  1  0
  4 33  1  0
  5 34  1  0
  6 35  1  0
 15 36  1  0
 16 37  1  0
 18 38  1  0
 18 39  1  0
 19 40  1  0
 19 41  1  0
 20 42  1  0
 20 43  1  0
 20 44  1  0
 21 45  1  0
 21 46  1  0
 21 47  1  0
 22 48  1  0
 22 49  1  0
 22 50  1  0
 23 51  1  0
 23 52  1  0
 26 53  1  0
M  END
>  <Name>  (14) 
CHEMBL297636

>  <Comment>  (14) 
 Schrodinger Suite 2021-4.

>  <s_m_entry_id>  (14) 
1106

>  <class_value>  (14) 
1

>  <s_m_Source_Path>  (14) 
C:\Users\vinicius\Desktop

>  <s_m_Source_File>  (14) 
Ligands_Saureus_o.sdf

>  <i_m_Source_File_Index>  (14) 
28

>  <r_lp_tautomer_probability>  (14) 
1

>  <r_epik_Ionization_Penalty>  (14) 
0.0002

>  <r_epik_State_Penalty>  (14) 
0

>  <i_epik_Tot_Q>  (14) 
0

>  <i_f3d_flags>  (14) 
0

>  <s_m_job_name>  (14) 
Saureus_o

>  <FRED Chemgauss4 score>  (14) 
-15.912664

>  <Set>  (14) 
training

>  <HBA count>  (14) 
4

>  <HBD count>  (14) 
1

>  <ExactMolWt>  (14) 
388.1899260080007

>  <NumRotatableBounds>  (14) 
7

>  <FractionCsp3>  (14) 
0.2608695652173913

>  <TPSA>  (14) 
67.23

>  <LogP_WildmanCrippen>  (14) 
3.438220000000002

>  <General_Cluster>  (14) 
1

>  <Biological_Cluster>  (14) 
1

>  <Physicochemical_Cluster>  (14) 
1

>  <Structural_Cluster>  (14) 
2

$$$$
CHEMBL72196
     RDKit          3D

 51 54  0  0  0  0  0  0  0  0999 V2000
  108.8608   68.0074   32.1790 C   0  0  0  0  0  0  0  0  0  0  0  0
  109.8422   68.9893   32.0589 C   0  0  0  0  0  0  0  0  0  0  0  0
  108.7451   67.2496   33.3500 C   0  0  0  0  0  0  0  0  0  0  0  0
  111.7254   66.4250   40.9049 C   0  0  0  0  0  0  0  0  0  0  0  0
  109.5938   65.3993   40.4135 C   0  0  0  0  0  0  0  0  0  0  0  0
  112.3667   71.8741   35.2497 C   0  0  0  0  0  0  0  0  0  0  0  0
  111.1341   70.9906   37.1305 C   0  0  0  0  0  0  0  0  0  0  0  0
  110.7372   69.2452   33.1018 C   0  0  0  0  0  0  0  0  0  0  0  0
  111.2062   66.9337   42.0954 C   0  0  0  0  0  0  0  0  0  0  0  0
  109.0746   65.9080   41.6040 C   0  0  0  0  0  0  0  0  0  0  0  0
  111.9247   73.1592   35.5637 C   0  0  0  0  0  0  0  0  0  0  0  0
  110.6921   72.2757   37.4445 C   0  0  0  0  0  0  0  0  0  0  0  0
  109.8059   66.9282   35.7113 C   0  0  0  0  0  0  0  0  0  0  0  0
  109.6362   67.4897   34.4148 C   0  0  0  0  0  0  0  0  0  0  0  0
  110.9192   65.6578   40.0639 C   0  0  0  0  0  0  0  0  0  0  0  0
  111.9714   70.7897   36.0330 C   0  0  0  0  0  0  0  0  0  0  0  0
  110.6097   68.4799   34.2664 C   0  0  0  0  0  0  0  0  0  0  0  0
  109.8808   66.6752   42.4450 C   0  0  0  0  0  0  0  0  0  0  0  0
  111.0874   73.3601   36.6611 C   0  0  0  0  0  0  0  0  0  0  0  0
  110.8597   67.5762   36.3136 C   0  0  0  0  0  0  0  0  0  0  0  0
  111.4668   65.1209   38.8081 C   0  0  0  0  0  0  0  0  0  0  0  0
  113.0502   65.6222   36.9872 C   0  0  0  0  0  0  0  0  0  0  0  0
  112.4487   69.4032   35.6948 C   0  0  0  0  0  0  0  0  0  0  0  0
  111.4489   67.3799   37.6543 C   0  0  0  0  0  0  0  0  0  0  0  0
  111.3378   68.5105   35.4344 N   0  0  0  0  0  0  0  0  0  0  0  0
  111.9500   66.0384   37.8566 N   0  0  0  0  0  0  0  0  0  0  0  0
  111.4686   63.8956   38.6948 O   0  0  0  0  0  0  0  0  0  0  0  0
  109.3738   67.1715   43.6064 O   0  0  0  0  0  0  0  0  0  0  0  0
  110.6573   74.6144   36.9680 O   0  0  0  0  0  0  0  0  0  0  0  0
  108.1687   67.8257   31.3435 H   0  0  0  0  0  0  0  0  0  0  0  0
  109.9138   69.5722   31.1288 H   0  0  0  0  0  0  0  0  0  0  0  0
  107.9680   66.4760   33.4380 H   0  0  0  0  0  0  0  0  0  0  0  0
  112.7706   66.6288   40.6292 H   0  0  0  0  0  0  0  0  0  0  0  0
  108.9580   64.7943   39.7503 H   0  0  0  0  0  0  0  0  0  0  0  0
  113.0270   71.7157   34.3843 H   0  0  0  0  0  0  0  0  0  0  0  0
  110.8224   70.1355   37.7483 H   0  0  0  0  0  0  0  0  0  0  0  0
  111.5131   70.0196   33.0104 H   0  0  0  0  0  0  0  0  0  0  0  0
  111.8420   67.5387   42.7586 H   0  0  0  0  0  0  0  0  0  0  0  0
  108.0294   65.7042   41.8797 H   0  0  0  0  0  0  0  0  0  0  0  0
  112.2364   74.0143   34.9459 H   0  0  0  0  0  0  0  0  0  0  0  0
  110.0318   72.4341   38.3099 H   0  0  0  0  0  0  0  0  0  0  0  0
  109.2029   66.1210   36.1527 H   0  0  0  0  0  0  0  0  0  0  0  0
  113.9025   65.2998   37.6033 H   0  0  0  0  0  0  0  0  0  0  0  0
  112.7199   64.7869   36.3523 H   0  0  0  0  0  0  0  0  0  0  0  0
  113.3555   66.4670   36.3523 H   0  0  0  0  0  0  0  0  0  0  0  0
  113.0857   69.4525   34.7994 H   0  0  0  0  0  0  0  0  0  0  0  0
  113.0130   69.0121   36.5543 H   0  0  0  0  0  0  0  0  0  0  0  0
  112.2811   68.0883   37.7794 H   0  0  0  0  0  0  0  0  0  0  0  0
  110.6525   67.5504   38.3937 H   0  0  0  0  0  0  0  0  0  0  0  0
  108.4331   66.9879   43.8543 H   0  0  0  0  0  0  0  0  0  0  0  0
  110.0630   74.7572   37.7468 H   0  0  0  0  0  0  0  0  0  0  0  0
  1  2  2  0
  1  3  1  0
  2  8  1  0
  3 14  2  0
  4  9  2  0
  4 15  1  0
  5 10  1  0
  5 15  2  0
  6 11  2  0
  6 16  1  0
  7 12  1  0
  7 16  2  0
  8 17  2  0
  9 18  1  0
 10 18  2  0
 11 19  1  0
 12 19  2  0
 13 14  1  0
 13 20  2  0
 14 17  1  0
 15 21  1  0
 16 23  1  0
 17 25  1  0
 18 28  1  0
 19 29  1  0
 20 24  1  0
 20 25  1  0
 21 26  1  0
 21 27  2  0
 22 26  1  0
 23 25  1  0
 24 26  1  0
  1 30  1  0
  2 31  1  0
  3 32  1  0
  4 33  1  0
  5 34  1  0
  6 35  1  0
  7 36  1  0
  8 37  1  0
  9 38  1  0
 10 39  1  0
 11 40  1  0
 12 41  1  0
 13 42  1  0
 22 43  1  0
 22 44  1  0
 22 45  1  0
 23 46  1  0
 23 47  1  0
 24 48  1  0
 24 49  1  0
 28 50  1  0
 29 51  1  0
M  END
>  <Name>  (15) 
CHEMBL72196

>  <Comment>  (15) 
 Schrodinger Suite 2021-4.

>  <s_m_entry_id>  (15) 
1196

>  <class_value>  (15) 
1

>  <s_m_Source_Path>  (15) 
C:\Users\vinicius\Desktop

>  <s_m_Source_File>  (15) 
Ligands_Saureus_o.sdf

>  <i_m_Source_File_Index>  (15) 
97

>  <r_lp_tautomer_probability>  (15) 
0.99999999999473

>  <r_epik_Ionization_Penalty>  (15) 
0.0163

>  <r_epik_State_Penalty>  (15) 
0.0121

>  <i_epik_Tot_Q>  (15) 
0

>  <i_f3d_flags>  (15) 
0

>  <s_m_job_name>  (15) 
Saureus_o

>  <FRED Chemgauss4 score>  (15) 
-11.010230

>  <Set>  (15) 
training

>  <HBA count>  (15) 
4

>  <HBD count>  (15) 
2

>  <ExactMolWt>  (15) 
386.1630425640006

>  <NumRotatableBounds>  (15) 
8

>  <FractionCsp3>  (15) 
0.125

>  <TPSA>  (15) 
65.7

>  <LogP_WildmanCrippen>  (15) 
4.3730000000000055

>  <General_Cluster>  (15) 
3

>  <Biological_Cluster>  (15) 
1

>  <Physicochemical_Cluster>  (15) 
1

>  <Structural_Cluster>  (15) 
4

$$$$
CHEMBL3676416
     RDKit          3D

 46 48  0  0  0  0  0  0  0  0999 V2000
  109.1733   62.8938   43.4476 C   0  0  0  0  0  0  0  0  0  0  0  0
  108.0557   62.7365   44.2596 C   0  0  0  0  0  0  0  0  0  0  0  0
  110.3924   69.7240   33.4468 C   0  0  0  0  0  0  0  0  0  0  0  0
  109.8832   67.4118   33.0233 C   0  0  0  0  0  0  0  0  0  0  0  0
  110.4267   69.9118   32.0744 C   0  0  0  0  0  0  0  0  0  0  0  0
  109.9401   67.7033   31.6700 C   0  0  0  0  0  0  0  0  0  0  0  0
  108.1827   64.8628   42.5542 C   0  0  0  0  0  0  0  0  0  0  0  0
  109.2459   63.9745   42.5758 C   0  0  0  0  0  0  0  0  0  0  0  0
  110.1148   68.4471   33.9221 C   0  0  0  0  0  0  0  0  0  0  0  0
  107.0459   63.6803   44.1627 C   0  0  0  0  0  0  0  0  0  0  0  0
  110.4164   64.1689   41.7025 C   0  0  0  0  0  0  0  0  0  0  0  0
  110.4318   64.9200   40.5912 C   0  0  0  0  0  0  0  0  0  0  0  0
  111.6273   65.0767   39.7428 C   0  0  0  0  0  0  0  0  0  0  0  0
  104.7894   64.3253   45.0665 C   0  0  0  0  0  0  0  0  0  0  0  0
  112.4066   66.2500   37.6136 C   0  0  0  0  0  0  0  0  0  0  0  0
  110.3455   66.5999   38.0784 C   0  0  0  0  0  0  0  0  0  0  0  0
  111.3580   67.2627   37.1309 C   0  0  0  0  0  0  0  0  0  0  0  0
  103.8009   63.7977   46.0759 C   0  0  0  0  0  0  0  0  0  0  0  0
  110.0661   68.1873   35.3992 C   0  0  0  0  0  0  0  0  0  0  0  0
  110.2069   68.9309   31.1705 N   0  0  0  0  0  0  0  0  0  0  0  0
  107.0806   64.7431   43.3279 N   0  0  0  0  0  0  0  0  0  0  0  0
  111.4638   65.8782   38.6501 N   0  0  0  0  0  0  0  0  0  0  0  0
  105.9248   63.5134   44.9847 N   0  0  0  0  0  0  0  0  0  0  0  0
  112.6713   64.5031   40.0430 O   0  0  0  0  0  0  0  0  0  0  0  0
  104.5529   65.3475   44.4307 O   0  0  0  0  0  0  0  0  0  0  0  0
  111.0390   67.2143   35.7293 O   0  0  0  0  0  0  0  0  0  0  0  0
  109.9969   62.1661   43.4947 H   0  0  0  0  0  0  0  0  0  0  0  0
  107.9757   61.8895   44.9569 H   0  0  0  0  0  0  0  0  0  0  0  0
  110.5789   70.5587   34.1385 H   0  0  0  0  0  0  0  0  0  0  0  0
  109.6618   66.3935   33.3755 H   0  0  0  0  0  0  0  0  0  0  0  0
  110.6464   70.9214   31.6971 H   0  0  0  0  0  0  0  0  0  0  0  0
  109.7568   66.8852   30.9579 H   0  0  0  0  0  0  0  0  0  0  0  0
  108.2389   65.7182   41.8649 H   0  0  0  0  0  0  0  0  0  0  0  0
  111.3496   63.6588   41.9834 H   0  0  0  0  0  0  0  0  0  0  0  0
  109.5094   65.4434   40.2993 H   0  0  0  0  0  0  0  0  0  0  0  0
  112.6393   65.4505   36.8948 H   0  0  0  0  0  0  0  0  0  0  0  0
  113.4395   66.5482   37.8464 H   0  0  0  0  0  0  0  0  0  0  0  0
  109.8417   67.2911   38.7701 H   0  0  0  0  0  0  0  0  0  0  0  0
  109.4498   66.0830   37.7036 H   0  0  0  0  0  0  0  0  0  0  0  0
  111.5484   68.3453   37.1730 H   0  0  0  0  0  0  0  0  0  0  0  0
  104.1729   63.9963   47.0918 H   0  0  0  0  0  0  0  0  0  0  0  0
  102.8315   64.2983   45.9360 H   0  0  0  0  0  0  0  0  0  0  0  0
  103.6773   62.7137   45.9360 H   0  0  0  0  0  0  0  0  0  0  0  0
  110.2769   69.1191   35.9445 H   0  0  0  0  0  0  0  0  0  0  0  0
  109.0667   67.8227   35.6791 H   0  0  0  0  0  0  0  0  0  0  0  0
  105.9381   62.6915   45.6054 H   0  0  0  0  0  0  0  0  0  0  0  0
  1  2  2  0
  1  8  1  0
  2 10  1  0
  3  5  2  0
  3  9  1  0
  4  6  1  0
  4  9  2  0
  5 20  1  0
  6 20  2  0
  7  8  2  0
  7 21  1  0
  8 11  1  0
  9 19  1  0
 10 21  2  0
 10 23  1  0
 11 12  2  0
 12 13  1  0
 13 22  1  0
 13 24  2  0
 14 18  1  0
 14 23  1  0
 14 25  2  0
 15 17  1  0
 15 22  1  0
 16 17  1  0
 16 22  1  0
 17 26  1  0
 19 26  1  0
  1 27  1  0
  2 28  1  0
  3 29  1  0
  4 30  1  0
  5 31  1  0
  6 32  1  0
  7 33  1  0
 11 34  1  0
 12 35  1  0
 15 36  1  0
 15 37  1  0
 16 38  1  0
 16 39  1  0
 17 40  1  0
 18 41  1  0
 18 42  1  0
 18 43  1  0
 19 44  1  0
 19 45  1  0
 23 46  1  0
M  END
>  <Name>  (16) 
CHEMBL3676416

>  <Comment>  (16) 
 Schrodinger Suite 2021-4.

>  <s_m_entry_id>  (16) 
1148

>  <class_value>  (16) 
1

>  <s_m_Source_Path>  (16) 
C:\Users\vinicius\Desktop

>  <s_m_Source_File>  (16) 
Ligands_Saureus_o.sdf

>  <i_m_Source_File_Index>  (16) 
59

>  <r_epik_Ionization_Penalty>  (16) 
0.0041

>  <r_epik_State_Penalty>  (16) 
0.0028

>  <i_epik_Tot_Q>  (16) 
0

>  <i_f3d_flags>  (16) 
0

>  <s_m_job_name>  (16) 
Saureus_o

>  <FRED Chemgauss4 score>  (16) 
-10.826283

>  <Set>  (16) 
training

>  <HBA count>  (16) 
5

>  <HBD count>  (16) 
1

>  <ExactMolWt>  (16) 
352.15354050000053

>  <NumRotatableBounds>  (16) 
7

>  <FractionCsp3>  (16) 
0.2631578947368421

>  <TPSA>  (16) 
84.42

>  <LogP_WildmanCrippen>  (16) 
1.8758000000000001

>  <General_Cluster>  (16) 
1

>  <Biological_Cluster>  (16) 
1

>  <Physicochemical_Cluster>  (16) 
4

>  <Structural_Cluster>  (16) 
2

$$$$
CHEMBL308352
     RDKit          3D

 57 61  0  0  0  0  0  0  0  0999 V2000
  111.6756   64.8823   33.5812 C   0  0  0  0  0  0  0  0  0  0  0  0
  110.9189   65.9845   33.1893 C   0  0  0  0  0  0  0  0  0  0  0  0
  111.9305   64.6331   34.9345 C   0  0  0  0  0  0  0  0  0  0  0  0
  109.3634   67.9668   41.8473 C   0  0  0  0  0  0  0  0  0  0  0  0
  108.1028   65.9097   41.9755 C   0  0  0  0  0  0  0  0  0  0  0  0
  111.2166   70.2950   36.3106 C   0  0  0  0  0  0  0  0  0  0  0  0
  109.6334   69.9088   34.5270 C   0  0  0  0  0  0  0  0  0  0  0  0
  110.3934   66.8706   34.1338 C   0  0  0  0  0  0  0  0  0  0  0  0
  108.2333   68.6839   42.2399 C   0  0  0  0  0  0  0  0  0  0  0  0
  106.9726   66.6269   42.3682 C   0  0  0  0  0  0  0  0  0  0  0  0
  111.8211   71.3006   35.5564 C   0  0  0  0  0  0  0  0  0  0  0  0
  110.2379   70.9145   33.7727 C   0  0  0  0  0  0  0  0  0  0  0  0
  111.4124   65.5124   35.9065 C   0  0  0  0  0  0  0  0  0  0  0  0
  109.2982   66.5797   41.7150 C   0  0  0  0  0  0  0  0  0  0  0  0
  111.4671   65.5718   37.3256 C   0  0  0  0  0  0  0  0  0  0  0  0
  110.1227   69.5991   35.7959 C   0  0  0  0  0  0  0  0  0  0  0  0
  110.6548   66.6106   35.4840 C   0  0  0  0  0  0  0  0  0  0  0  0
  107.0379   68.0139   42.5004 C   0  0  0  0  0  0  0  0  0  0  0  0
  111.3317   71.6104   34.2874 C   0  0  0  0  0  0  0  0  0  0  0  0
  110.7511   66.6804   37.7251 C   0  0  0  0  0  0  0  0  0  0  0  0
  110.4898   65.8233   41.3012 C   0  0  0  0  0  0  0  0  0  0  0  0
  112.1179   64.6735   38.3172 C   0  0  0  0  0  0  0  0  0  0  0  0
  110.5410   67.1463   39.1206 C   0  0  0  0  0  0  0  0  0  0  0  0
  112.2976   65.4142   39.6534 C   0  0  0  0  0  0  0  0  0  0  0  0
  111.2102   74.3493   33.8003 C   0  0  0  0  0  0  0  0  0  0  0  0
  109.4708   68.5136   36.6091 C   0  0  0  0  0  0  0  0  0  0  0  0
  110.2671   67.3044   36.6112 N   0  0  0  0  0  0  0  0  0  0  0  0
  111.0625   66.1195   40.0586 N   0  0  0  0  0  0  0  0  0  0  0  0
  110.9024   64.9786   42.0948 O   0  0  0  0  0  0  0  0  0  0  0  0
  113.4631   73.0080   33.7991 O   0  0  0  0  0  0  0  0  0  0  0  0
  111.8124   72.6330   31.9334 O   0  0  0  0  0  0  0  0  0  0  0  0
  105.9350   68.7134   42.8834 O   0  0  0  0  0  0  0  0  0  0  0  0
  112.0868   72.8705   33.3441 S   0  0  0  0  0  6  0  0  0  0  0  0
  112.0775   64.1998   32.8178 H   0  0  0  0  0  0  0  0  0  0  0  0
  110.7321   66.1601   32.1196 H   0  0  0  0  0  0  0  0  0  0  0  0
  112.5286   63.7606   35.2362 H   0  0  0  0  0  0  0  0  0  0  0  0
  110.3061   68.4951   41.6420 H   0  0  0  0  0  0  0  0  0  0  0  0
  108.0513   64.8159   41.8713 H   0  0  0  0  0  0  0  0  0  0  0  0
  111.6025   70.0507   37.3113 H   0  0  0  0  0  0  0  0  0  0  0  0
  108.7708   69.3600   34.1211 H   0  0  0  0  0  0  0  0  0  0  0  0
  109.7956   67.7415   33.8269 H   0  0  0  0  0  0  0  0  0  0  0  0
  108.2847   69.7777   42.3441 H   0  0  0  0  0  0  0  0  0  0  0  0
  106.0299   66.0986   42.5736 H   0  0  0  0  0  0  0  0  0  0  0  0
  112.6837   71.8493   35.9623 H   0  0  0  0  0  0  0  0  0  0  0  0
  109.8520   71.1588   32.7720 H   0  0  0  0  0  0  0  0  0  0  0  0
  111.4879   63.7855   38.4739 H   0  0  0  0  0  0  0  0  0  0  0  0
  113.1035   64.3668   37.9369 H   0  0  0  0  0  0  0  0  0  0  0  0
  111.0765   68.0943   39.2772 H   0  0  0  0  0  0  0  0  0  0  0  0
  109.4674   67.3030   39.3017 H   0  0  0  0  0  0  0  0  0  0  0  0
  112.5633   64.6845   40.4325 H   0  0  0  0  0  0  0  0  0  0  0  0
  113.0936   66.1626   39.5261 H   0  0  0  0  0  0  0  0  0  0  0  0
  111.1651   74.4253   34.8967 H   0  0  0  0  0  0  0  0  0  0  0  0
  111.7343   75.2266   33.3932 H   0  0  0  0  0  0  0  0  0  0  0  0
  110.1891   74.3106   33.3932 H   0  0  0  0  0  0  0  0  0  0  0  0
  109.3511   68.8651   37.6445 H   0  0  0  0  0  0  0  0  0  0  0  0
  108.4936   68.2837   36.1594 H   0  0  0  0  0  0  0  0  0  0  0  0
  105.0867   68.2377   43.0682 H   0  0  0  0  0  0  0  0  0  0  0  0
  1  2  2  0
  1  3  1  0
  2  8  1  0
  3 13  2  0
  4  9  2  0
  4 14  1  0
  5 10  1  0
  5 14  2  0
  6 11  2  0
  6 16  1  0
  7 12  1  0
  7 16  2  0
  8 17  2  0
  9 18  1  0
 10 18  2  0
 11 19  1  0
 12 19  2  0
 13 15  1  0
 13 17  1  0
 14 21  1  0
 15 20  2  0
 15 22  1  0
 16 26  1  0
 17 27  1  0
 18 32  1  0
 19 33  1  0
 20 23  1  0
 20 27  1  0
 21 28  1  0
 21 29  2  0
 22 24  1  0
 23 28  1  0
 24 28  1  0
 25 33  1  0
 26 27  1  0
 30 33  2  0
 31 33  2  0
  1 34  1  0
  2 35  1  0
  3 36  1  0
  4 37  1  0
  5 38  1  0
  6 39  1  0
  7 40  1  0
  8 41  1  0
  9 42  1  0
 10 43  1  0
 11 44  1  0
 12 45  1  0
 22 46  1  0
 22 47  1  0
 23 48  1  0
 23 49  1  0
 24 50  1  0
 24 51  1  0
 25 52  1  0
 25 53  1  0
 25 54  1  0
 26 55  1  0
 26 56  1  0
 32 57  1  0
M  END
>  <Name>  (17) 
CHEMBL308352

>  <Comment>  (17) 
 Schrodinger Suite 2021-4.

>  <s_m_entry_id>  (17) 
1155

>  <class_value>  (17) 
1

>  <s_m_Source_Path>  (17) 
C:\Users\vinicius\Desktop

>  <s_m_Source_File>  (17) 
Ligands_Saureus_o.sdf

>  <i_m_Source_File_Index>  (17) 
64

>  <r_lp_tautomer_probability>  (17) 
0.999999999997365

>  <r_epik_Ionization_Penalty>  (17) 
0.0145

>  <r_epik_State_Penalty>  (17) 
0.0114

>  <i_epik_Tot_Q>  (17) 
0

>  <i_f3d_flags>  (17) 
0

>  <s_m_job_name>  (17) 
Saureus_o

>  <FRED Chemgauss4 score>  (17) 
-10.830387

>  <Set>  (17) 
training

>  <HBA count>  (17) 
5

>  <HBD count>  (17) 
1

>  <ExactMolWt>  (17) 
460.14567824800065

>  <NumRotatableBounds>  (17) 
6

>  <FractionCsp3>  (17) 
0.19230769230769232

>  <TPSA>  (17) 
79.61

>  <LogP_WildmanCrippen>  (17) 
3.9972000000000025

>  <General_Cluster>  (17) 
3

>  <Biological_Cluster>  (17) 
1

>  <Physicochemical_Cluster>  (17) 
1

>  <Structural_Cluster>  (17) 
4

$$$$
CHEMBL433836
     RDKit          3D

 31 33  0  0  0  0  0  0  0  0999 V2000
  111.5641   70.2328   31.9525 C   0  0  0  0  0  0  0  0  0  0  0  0
  110.6878   69.2480   32.4083 C   0  0  0  0  0  0  0  0  0  0  0  0
  111.9348   71.2808   32.7952 C   0  0  0  0  0  0  0  0  0  0  0  0
  111.9314   64.8059   38.4566 C   0  0  0  0  0  0  0  0  0  0  0  0
  110.5527   70.3591   34.5494 C   0  0  0  0  0  0  0  0  0  0  0  0
  110.1993   67.5305   36.4182 C   0  0  0  0  0  0  0  0  0  0  0  0
  112.3431   64.7382   39.7694 C   0  0  0  0  0  0  0  0  0  0  0  0
  111.2884   66.8967   39.2422 C   0  0  0  0  0  0  0  0  0  0  0  0
  110.3376   66.0567   34.7856 C   0  0  0  0  0  0  0  0  0  0  0  0
  111.3205   66.0563   38.1510 C   0  0  0  0  0  0  0  0  0  0  0  0
  110.1821   69.3111   33.7068 C   0  0  0  0  0  0  0  0  0  0  0  0
  111.4291   71.3439   34.0936 C   0  0  0  0  0  0  0  0  0  0  0  0
  110.8060   66.3703   36.8381 C   0  0  0  0  0  0  0  0  0  0  0  0
  109.2446   68.2587   34.1937 C   0  0  0  0  0  0  0  0  0  0  0  0
  110.8893   65.4570   35.8171 N   0  0  0  0  0  0  0  0  0  0  0  0
  109.9054   67.3148   35.1013 N   0  0  0  0  0  0  0  0  0  0  0  0
  111.8074   72.4100   34.9516 N   0  0  0  0  0  4  0  0  0  0  0  0
  112.5978   73.2851   34.5224 O   0  0  0  0  0  1  0  0  0  0  0  0
  111.3414   72.4481   36.1162 O   0  0  0  0  0  0  0  0  0  0  0  0
  111.9930   66.1781   40.6276 S   0  0  0  0  0  0  0  0  0  0  0  0
  111.9629   70.1830   30.9285 H   0  0  0  0  0  0  0  0  0  0  0  0
  110.3955   68.4216   31.7438 H   0  0  0  0  0  0  0  0  0  0  0  0
  112.6259   72.0574   32.4358 H   0  0  0  0  0  0  0  0  0  0  0  0
  112.0593   63.9904   37.7296 H   0  0  0  0  0  0  0  0  0  0  0  0
  110.1538   70.4089   35.5733 H   0  0  0  0  0  0  0  0  0  0  0  0
  109.9953   68.4338   37.0119 H   0  0  0  0  0  0  0  0  0  0  0  0
  112.8384   63.8624   40.2140 H   0  0  0  0  0  0  0  0  0  0  0  0
  110.8606   67.9099   39.2255 H   0  0  0  0  0  0  0  0  0  0  0  0
  110.2360   65.6016   33.7893 H   0  0  0  0  0  0  0  0  0  0  0  0
  108.4132   68.7424   34.7274 H   0  0  0  0  0  0  0  0  0  0  0  0
  108.8817   67.6954   33.3213 H   0  0  0  0  0  0  0  0  0  0  0  0
  1  2  2  0
  1  3  1  0
  2 11  1  0
  3 12  2  0
  4  7  2  0
  4 10  1  0
  5 11  2  0
  5 12  1  0
  6 13  2  0
  6 16  1  0
  7 20  1  0
  8 10  2  0
  8 20  1  0
  9 15  2  0
  9 16  1  0
 10 13  1  0
 11 14  1  0
 12 17  1  0
 13 15  1  0
 14 16  1  0
 17 18  1  0
 17 19  2  0
  1 21  1  0
  2 22  1  0
  3 23  1  0
  4 24  1  0
  5 25  1  0
  6 26  1  0
  7 27  1  0
  8 28  1  0
  9 29  1  0
 14 30  1  0
 14 31  1  0
M  CHG  2  17   1  18  -1
M  END
>  <Name>  (18) 
CHEMBL433836

>  <Comment>  (18) 
 Schrodinger Suite 2021-4.

>  <s_m_entry_id>  (18) 
1300

>  <class_value>  (18) 
0

>  <s_m_Source_Path>  (18) 
C:\Users\vinicius\Desktop

>  <s_m_Source_File>  (18) 
Ligands_Saureus_o.sdf

>  <i_m_Source_File_Index>  (18) 
178

>  <r_lp_tautomer_probability>  (18) 
1

>  <r_epik_Ionization_Penalty>  (18) 
0.316

>  <r_epik_State_Penalty>  (18) 
0.3102

>  <i_epik_Tot_Q>  (18) 
0

>  <i_f3d_flags>  (18) 
0

>  <s_m_job_name>  (18) 
Saureus_o

>  <FRED Chemgauss4 score>  (18) 
-13.333427

>  <Set>  (18) 
training

>  <HBA count>  (18) 
5

>  <HBD count>  (18) 
0

>  <ExactMolWt>  (18) 
285.0571975920003

>  <NumRotatableBounds>  (18) 
4

>  <FractionCsp3>  (18) 
0.07142857142857142

>  <TPSA>  (18) 
60.96

>  <LogP_WildmanCrippen>  (18) 
3.568100000000002

>  <General_Cluster>  (18) 
4

>  <Biological_Cluster>  (18) 
2

>  <Physicochemical_Cluster>  (18) 
3

>  <Structural_Cluster>  (18) 
1

$$$$
CHEMBL65914
     RDKit          3D

 39 41  0  0  0  0  0  0  0  0999 V2000
  110.7395   67.7711   36.8311 C   0  0  0  0  0  0  0  0  0  0  0  0
  110.4743   65.6847   35.6422 C   0  0  0  0  0  0  0  0  0  0  0  0
  107.2873   65.4779   42.3534 C   0  0  0  0  0  0  0  0  0  0  0  0
  107.9703   63.2375   42.9460 C   0  0  0  0  0  0  0  0  0  0  0  0
  108.5878   65.7648   41.9388 C   0  0  0  0  0  0  0  0  0  0  0  0
  109.2709   63.5244   42.5314 C   0  0  0  0  0  0  0  0  0  0  0  0
  110.4948   68.4743   35.6517 C   0  0  0  0  0  0  0  0  0  0  0  0
  110.2295   66.3879   34.4627 C   0  0  0  0  0  0  0  0  0  0  0  0
  110.6755   66.1024   39.3026 C   0  0  0  0  0  0  0  0  0  0  0  0
  111.6126   64.1087   39.3637 C   0  0  0  0  0  0  0  0  0  0  0  0
  110.7293   66.3762   36.8264 C   0  0  0  0  0  0  0  0  0  0  0  0
  106.9785   64.2143   42.8570 C   0  0  0  0  0  0  0  0  0  0  0  0
  109.5796   64.7880   42.0278 C   0  0  0  0  0  0  0  0  0  0  0  0
  110.2398   67.7828   34.4675 C   0  0  0  0  0  0  0  0  0  0  0  0
  110.9817   65.6517   38.0402 C   0  0  0  0  0  0  0  0  0  0  0  0
  105.5883   63.9068   43.3005 C   0  0  0  0  0  0  0  0  0  0  0  0
  109.7474   67.6986   32.1423 C   0  0  0  0  0  0  0  0  0  0  0  0
  110.9821   65.0977   41.5787 C   0  0  0  0  0  0  0  0  0  0  0  0
  111.5645   64.4100   38.0851 N   0  0  0  0  0  0  0  0  0  0  0  0
  111.0851   65.1031   40.1398 N   0  0  0  0  0  0  0  0  0  0  0  0
  110.0008   68.4687   33.3164 O   0  0  0  0  0  0  0  0  0  0  0  0
  110.9405   68.3165   37.7650 H   0  0  0  0  0  0  0  0  0  0  0  0
  110.4662   64.5847   35.6385 H   0  0  0  0  0  0  0  0  0  0  0  0
  106.5052   66.2482   42.2832 H   0  0  0  0  0  0  0  0  0  0  0  0
  107.7268   62.2410   43.3431 H   0  0  0  0  0  0  0  0  0  0  0  0
  108.8313   66.7613   41.5417 H   0  0  0  0  0  0  0  0  0  0  0  0
  110.0531   62.7542   42.6016 H   0  0  0  0  0  0  0  0  0  0  0  0
  110.5029   69.5743   35.6554 H   0  0  0  0  0  0  0  0  0  0  0  0
  110.0283   65.8425   33.5288 H   0  0  0  0  0  0  0  0  0  0  0  0
  110.2044   67.0575   39.5781 H   0  0  0  0  0  0  0  0  0  0  0  0
  112.0270   63.1704   39.7611 H   0  0  0  0  0  0  0  0  0  0  0  0
  105.5476   63.8978   44.3997 H   0  0  0  0  0  0  0  0  0  0  0  0
  104.9019   64.6748   42.9145 H   0  0  0  0  0  0  0  0  0  0  0  0
  105.2899   62.9209   42.9145 H   0  0  0  0  0  0  0  0  0  0  0  0
  109.4155   66.6900   32.4299 H   0  0  0  0  0  0  0  0  0  0  0  0
  108.9625   68.1867   31.5459 H   0  0  0  0  0  0  0  0  0  0  0  0
  110.6688   67.6253   31.5459 H   0  0  0  0  0  0  0  0  0  0  0  0
  111.2701   66.0878   41.9618 H   0  0  0  0  0  0  0  0  0  0  0  0
  111.6513   64.3176   41.9707 H   0  0  0  0  0  0  0  0  0  0  0  0
  1  7  2  0
  1 11  1  0
  2  8  1  0
  2 11  2  0
  3  5  2  0
  3 12  1  0
  4  6  1  0
  4 12  2  0
  5 13  1  0
  6 13  2  0
  7 14  1  0
  8 14  2  0
  9 15  2  0
  9 20  1  0
 10 19  2  0
 10 20  1  0
 11 15  1  0
 12 16  1  0
 13 18  1  0
 14 21  1  0
 15 19  1  0
 17 21  1  0
 18 20  1  0
  1 22  1  0
  2 23  1  0
  3 24  1  0
  4 25  1  0
  5 26  1  0
  6 27  1  0
  7 28  1  0
  8 29  1  0
  9 30  1  0
 10 31  1  0
 16 32  1  0
 16 33  1  0
 16 34  1  0
 17 35  1  0
 17 36  1  0
 17 37  1  0
 18 38  1  0
 18 39  1  0
M  END
>  <Name>  (19) 
CHEMBL65914

>  <Comment>  (19) 
 Schrodinger Suite 2021-4.

>  <s_m_entry_id>  (19) 
1313

>  <class_value>  (19) 
1

>  <s_m_Source_Path>  (19) 
C:\Users\vinicius\Desktop

>  <s_m_Source_File>  (19) 
Ligands_Saureus_o.sdf

>  <i_m_Source_File_Index>  (19) 
186

>  <r_lp_tautomer_probability>  (19) 
1

>  <r_epik_Ionization_Penalty>  (19) 
0.0819

>  <r_epik_State_Penalty>  (19) 
0.0726

>  <i_epik_Tot_Q>  (19) 
0

>  <i_f3d_flags>  (19) 
0

>  <s_m_job_name>  (19) 
Saureus_o

>  <FRED Chemgauss4 score>  (19) 
-12.805392

>  <Set>  (19) 
training

>  <HBA count>  (19) 
3

>  <HBD count>  (19) 
0

>  <ExactMolWt>  (19) 
278.1419131960005

>  <NumRotatableBounds>  (19) 
6

>  <FractionCsp3>  (19) 
0.16666666666666666

>  <TPSA>  (19) 
27.05

>  <LogP_WildmanCrippen>  (19) 
3.915420000000003

>  <General_Cluster>  (19) 
2

>  <Biological_Cluster>  (19) 
1

>  <Physicochemical_Cluster>  (19) 
3

>  <Structural_Cluster>  (19) 
3

$$$$
CHEMBL64645
     RDKit          3D

 32 34  0  0  0  0  0  0  0  0999 V2000
  110.7611   71.0836   34.0661 C   0  0  0  0  0  0  0  0  0  0  0  0
  111.1311   69.9791   31.9495 C   0  0  0  0  0  0  0  0  0  0  0  0
  110.0040   69.9960   34.5014 C   0  0  0  0  0  0  0  0  0  0  0  0
  110.3740   68.8914   32.3847 C   0  0  0  0  0  0  0  0  0  0  0  0
  111.9503   64.7191   38.5451 C   0  0  0  0  0  0  0  0  0  0  0  0
  109.9547   67.1662   36.3984 C   0  0  0  0  0  0  0  0  0  0  0  0
  112.3141   64.7209   39.8737 C   0  0  0  0  0  0  0  0  0  0  0  0
  111.0036   66.7135   39.2720 C   0  0  0  0  0  0  0  0  0  0  0  0
  110.3537   65.7068   34.7960 C   0  0  0  0  0  0  0  0  0  0  0  0
  111.1913   65.8734   38.1964 C   0  0  0  0  0  0  0  0  0  0  0  0
  111.3246   71.0752   32.7901 C   0  0  0  0  0  0  0  0  0  0  0  0
  109.8104   68.8999   33.6607 C   0  0  0  0  0  0  0  0  0  0  0  0
  110.6930   66.1019   36.8598 C   0  0  0  0  0  0  0  0  0  0  0  0
  112.1341   72.2377   32.3240 C   0  0  0  0  0  0  0  0  0  0  0  0
  109.0022   67.7366   34.1275 C   0  0  0  0  0  0  0  0  0  0  0  0
  110.9382   65.1971   35.8574 N   0  0  0  0  0  0  0  0  0  0  0  0
  109.7455   66.8992   35.0747 N   0  0  0  0  0  0  0  0  0  0  0  0
  111.7411   66.1102   40.6948 S   0  0  0  0  0  0  0  0  0  0  0  0
  110.9138   71.9480   34.7291 H   0  0  0  0  0  0  0  0  0  0  0  0
  111.5756   69.9724   30.9433 H   0  0  0  0  0  0  0  0  0  0  0  0
  109.5596   70.0027   35.5076 H   0  0  0  0  0  0  0  0  0  0  0  0
  110.2214   68.0270   31.7217 H   0  0  0  0  0  0  0  0  0  0  0  0
  112.2147   63.9203   37.8366 H   0  0  0  0  0  0  0  0  0  0  0  0
  109.6086   68.0404   36.9694 H   0  0  0  0  0  0  0  0  0  0  0  0
  112.9032   63.9239   40.3510 H   0  0  0  0  0  0  0  0  0  0  0  0
  110.4457   67.6603   39.2227 H   0  0  0  0  0  0  0  0  0  0  0  0
  110.3539   65.2316   33.8039 H   0  0  0  0  0  0  0  0  0  0  0  0
  112.5184   72.7895   33.1945 H   0  0  0  0  0  0  0  0  0  0  0  0
  112.9776   71.8773   31.7168 H   0  0  0  0  0  0  0  0  0  0  0  0
  111.5035   72.9038   31.7168 H   0  0  0  0  0  0  0  0  0  0  0  0
  108.0929   68.1104   34.6209 H   0  0  0  0  0  0  0  0  0  0  0  0
  108.7530   67.1208   33.2507 H   0  0  0  0  0  0  0  0  0  0  0  0
  1  3  2  0
  1 11  1  0
  2  4  1  0
  2 11  2  0
  3 12  1  0
  4 12  2  0
  5  7  2  0
  5 10  1  0
  6 13  2  0
  6 17  1  0
  7 18  1  0
  8 10  2  0
  8 18  1  0
  9 16  2  0
  9 17  1  0
 10 13  1  0
 11 14  1  0
 12 15  1  0
 13 16  1  0
 15 17  1  0
  1 19  1  0
  2 20  1  0
  3 21  1  0
  4 22  1  0
  5 23  1  0
  6 24  1  0
  7 25  1  0
  8 26  1  0
  9 27  1  0
 14 28  1  0
 14 29  1  0
 14 30  1  0
 15 31  1  0
 15 32  1  0
M  END
>  <Name>  (20) 
CHEMBL64645

>  <Comment>  (20) 
 Schrodinger Suite 2021-4.

>  <s_m_entry_id>  (20) 
1304

>  <class_value>  (20) 
1

>  <s_m_Source_Path>  (20) 
C:\Users\vinicius\Desktop

>  <s_m_Source_File>  (20) 
Ligands_Saureus_o.sdf

>  <i_m_Source_File_Index>  (20) 
181

>  <r_lp_tautomer_probability>  (20) 
1

>  <r_epik_Ionization_Penalty>  (20) 
0.316

>  <r_epik_State_Penalty>  (20) 
0.3102

>  <i_epik_Tot_Q>  (20) 
0

>  <i_f3d_flags>  (20) 
0

>  <s_m_job_name>  (20) 
Saureus_o

>  <FRED Chemgauss4 score>  (20) 
-13.386975

>  <Set>  (20) 
training

>  <HBA count>  (20) 
3

>  <HBD count>  (20) 
0

>  <ExactMolWt>  (20) 
254.087769448

>  <NumRotatableBounds>  (20) 
4

>  <FractionCsp3>  (20) 
0.13333333333333333

>  <TPSA>  (20) 
17.82

>  <LogP_WildmanCrippen>  (20) 
3.968320000000003

>  <General_Cluster>  (20) 
4

>  <Biological_Cluster>  (20) 
1

>  <Physicochemical_Cluster>  (20) 
3

>  <Structural_Cluster>  (20) 
1

$$$$
CHEMBL304771
     RDKit          3D

 57 61  0  0  0  0  0  0  0  0999 V2000
  106.7443   62.3249   44.4926 C   0  0  0  0  0  0  0  0  0  0  0  0
  105.8891   63.4246   44.5102 C   0  0  0  0  0  0  0  0  0  0  0  0
  107.8763   62.3109   43.6699 C   0  0  0  0  0  0  0  0  0  0  0  0
  111.8986   67.2825   38.3358 C   0  0  0  0  0  0  0  0  0  0  0  0
  110.4330   66.3174   36.6752 C   0  0  0  0  0  0  0  0  0  0  0  0
  111.8651   68.5008   37.6574 C   0  0  0  0  0  0  0  0  0  0  0  0
  110.3996   67.5357   35.9967 C   0  0  0  0  0  0  0  0  0  0  0  0
  106.3590   68.2985   43.5692 C   0  0  0  0  0  0  0  0  0  0  0  0
  108.7301   68.0651   43.1689 C   0  0  0  0  0  0  0  0  0  0  0  0
  106.1363   64.5426   43.7087 C   0  0  0  0  0  0  0  0  0  0  0  0
  106.6214   69.2079   44.5937 C   0  0  0  0  0  0  0  0  0  0  0  0
  108.9926   68.9746   44.1934 C   0  0  0  0  0  0  0  0  0  0  0  0
  108.1481   63.4265   42.8527 C   0  0  0  0  0  0  0  0  0  0  0  0
  111.1826   66.1908   37.8447 C   0  0  0  0  0  0  0  0  0  0  0  0
  111.1156   68.6274   36.4879 C   0  0  0  0  0  0  0  0  0  0  0  0
  109.1710   63.7531   41.9214 C   0  0  0  0  0  0  0  0  0  0  0  0
  107.4133   67.7270   42.8568 C   0  0  0  0  0  0  0  0  0  0  0  0
  107.2713   64.5167   42.8901 C   0  0  0  0  0  0  0  0  0  0  0  0
  107.9382   69.5460   44.9058 C   0  0  0  0  0  0  0  0  0  0  0  0
  108.8945   65.0076   41.4202 C   0  0  0  0  0  0  0  0  0  0  0  0
  111.2175   64.9063   38.5604 C   0  0  0  0  0  0  0  0  0  0  0  0
  111.0793   69.8979   35.7816 C   0  0  0  0  0  0  0  0  0  0  0  0
  110.3597   62.9832   41.4648 C   0  0  0  0  0  0  0  0  0  0  0  0
  109.6959   65.7612   40.4210 C   0  0  0  0  0  0  0  0  0  0  0  0
  111.3900   63.9378   40.8373 C   0  0  0  0  0  0  0  0  0  0  0  0
  111.8800   72.1454   35.8120 C   0  0  0  0  0  0  0  0  0  0  0  0
  107.1303   66.7463   41.7511 C   0  0  0  0  0  0  0  0  0  0  0  0
  107.7509   65.4642   42.0102 N   0  0  0  0  0  0  0  0  0  0  0  0
  110.7580   64.8735   39.8823 N   0  0  0  0  0  0  0  0  0  0  0  0
  111.6614   63.9447   37.9344 O   0  0  0  0  0  0  0  0  0  0  0  0
  110.4429   70.1019   34.7391 O   0  0  0  0  0  0  0  0  0  0  0  0
  108.1941   70.4344   45.9047 O   0  0  0  0  0  0  0  0  0  0  0  0
  111.8367   70.8466   36.4128 O   0  0  0  0  0  0  0  0  0  0  0  0
  106.5272   61.4573   45.1330 H   0  0  0  0  0  0  0  0  0  0  0  0
  105.0054   63.4128   45.1652 H   0  0  0  0  0  0  0  0  0  0  0  0
  108.5466   61.4387   43.6612 H   0  0  0  0  0  0  0  0  0  0  0  0
  112.4897   67.1826   39.2581 H   0  0  0  0  0  0  0  0  0  0  0  0
  109.8682   65.4565   36.2880 H   0  0  0  0  0  0  0  0  0  0  0  0
  112.4298   69.3617   38.0447 H   0  0  0  0  0  0  0  0  0  0  0  0
  109.8086   67.6355   35.0743 H   0  0  0  0  0  0  0  0  0  0  0  0
  105.3206   68.0320   43.3230 H   0  0  0  0  0  0  0  0  0  0  0  0
  109.5615   67.6145   42.6071 H   0  0  0  0  0  0  0  0  0  0  0  0
  105.4627   65.4121   43.7208 H   0  0  0  0  0  0  0  0  0  0  0  0
  105.7899   69.6585   45.1555 H   0  0  0  0  0  0  0  0  0  0  0  0
  110.0310   69.2412   44.4395 H   0  0  0  0  0  0  0  0  0  0  0  0
  110.8143   62.4695   42.3247 H   0  0  0  0  0  0  0  0  0  0  0  0
  110.0462   62.2430   40.7139 H   0  0  0  0  0  0  0  0  0  0  0  0
  109.0432   66.0947   39.6008 H   0  0  0  0  0  0  0  0  0  0  0  0
  110.1537   66.6399   40.8989 H   0  0  0  0  0  0  0  0  0  0  0  0
  111.8727   64.5175   41.6379 H   0  0  0  0  0  0  0  0  0  0  0  0
  112.1275   63.3337   40.2884 H   0  0  0  0  0  0  0  0  0  0  0  0
  111.9056   72.9130   36.5995 H   0  0  0  0  0  0  0  0  0  0  0  0
  112.7815   72.2306   35.1875 H   0  0  0  0  0  0  0  0  0  0  0  0
  110.9862   72.2905   35.1875 H   0  0  0  0  0  0  0  0  0  0  0  0
  106.0425   66.6067   41.6663 H   0  0  0  0  0  0  0  0  0  0  0  0
  107.5463   67.1495   40.8160 H   0  0  0  0  0  0  0  0  0  0  0  0
  109.1287   70.6744   46.1263 H   0  0  0  0  0  0  0  0  0  0  0  0
  1  2  2  0
  1  3  1  0
  2 10  1  0
  3 13  2  0
  4  6  2  0
  4 14  1  0
  5  7  1  0
  5 14  2  0
  6 15  1  0
  7 15  2  0
  8 11  2  0
  8 17  1  0
  9 12  1  0
  9 17  2  0
 10 18  2  0
 11 19  1  0
 12 19  2  0
 13 16  1  0
 13 18  1  0
 14 21  1  0
 15 22  1  0
 16 20  2  0
 16 23  1  0
 17 27  1  0
 18 28  1  0
 19 32  1  0
 20 24  1  0
 20 28  1  0
 21 29  1  0
 21 30  2  0
 22 31  2  0
 22 33  1  0
 23 25  1  0
 24 29  1  0
 25 29  1  0
 26 33  1  0
 27 28  1  0
  1 34  1  0
  2 35  1  0
  3 36  1  0
  4 37  1  0
  5 38  1  0
  6 39  1  0
  7 40  1  0
  8 41  1  0
  9 42  1  0
 10 43  1  0
 11 44  1  0
 12 45  1  0
 23 46  1  0
 23 47  1  0
 24 48  1  0
 24 49  1  0
 25 50  1  0
 25 51  1  0
 26 52  1  0
 26 53  1  0
 26 54  1  0
 27 55  1  0
 27 56  1  0
 32 57  1  0
M  END
>  <Name>  (21) 
CHEMBL304771

>  <Comment>  (21) 
 Schrodinger Suite 2021-4.

>  <s_m_entry_id>  (21) 
1220

>  <class_value>  (21) 
0

>  <s_m_Source_Path>  (21) 
C:\Users\vinicius\Desktop

>  <s_m_Source_File>  (21) 
Ligands_Saureus_o.sdf

>  <i_m_Source_File_Index>  (21) 
115

>  <r_lp_tautomer_probability>  (21) 
0.999999999997365

>  <r_epik_Ionization_Penalty>  (21) 
0.0009

>  <r_epik_State_Penalty>  (21) 
0.0006

>  <i_epik_Tot_Q>  (21) 
0

>  <i_f3d_flags>  (21) 
0

>  <s_m_job_name>  (21) 
Saureus_o

>  <FRED Chemgauss4 score>  (21) 
-11.185290

>  <Set>  (21) 
training

>  <HBA count>  (21) 
5

>  <HBD count>  (21) 
1

>  <ExactMolWt>  (21) 
440.1736072480006

>  <NumRotatableBounds>  (21) 
6

>  <FractionCsp3>  (21) 
0.18518518518518517

>  <TPSA>  (21) 
71.77000000000001

>  <LogP_WildmanCrippen>  (21) 
4.380300000000005

>  <General_Cluster>  (21) 
3

>  <Biological_Cluster>  (21) 
2

>  <Physicochemical_Cluster>  (21) 
1

>  <Structural_Cluster>  (21) 
4

$$$$
CHEMBL309025
     RDKit          3D

 52 56  0  0  0  0  0  0  0  0999 V2000
  110.1320   67.5462   32.3845 C   0  0  0  0  0  0  0  0  0  0  0  0
  109.8417   68.8939   32.5857 C   0  0  0  0  0  0  0  0  0  0  0  0
  110.4405   66.7110   33.4641 C   0  0  0  0  0  0  0  0  0  0  0  0
  108.3583   66.6680   40.8456 C   0  0  0  0  0  0  0  0  0  0  0  0
  112.2010   70.8543   35.8724 C   0  0  0  0  0  0  0  0  0  0  0  0
  110.5119   72.5443   36.2299 C   0  0  0  0  0  0  0  0  0  0  0  0
  109.8498   69.4492   33.8682 C   0  0  0  0  0  0  0  0  0  0  0  0
  113.0555   71.8206   35.3417 C   0  0  0  0  0  0  0  0  0  0  0  0
  111.3665   73.5107   35.6994 C   0  0  0  0  0  0  0  0  0  0  0  0
  107.6591   67.4899   41.7295 C   0  0  0  0  0  0  0  0  0  0  0  0
  109.7286   68.0553   42.8407 C   0  0  0  0  0  0  0  0  0  0  0  0
  110.4561   67.2471   34.7675 C   0  0  0  0  0  0  0  0  0  0  0  0
  109.7426   66.5397   40.9593 C   0  0  0  0  0  0  0  0  0  0  0  0
  110.7171   66.7156   36.0596 C   0  0  0  0  0  0  0  0  0  0  0  0
  110.9291   71.2161   36.3164 C   0  0  0  0  0  0  0  0  0  0  0  0
  110.1595   68.6039   34.9399 C   0  0  0  0  0  0  0  0  0  0  0  0
  112.6384   73.1488   35.2553 C   0  0  0  0  0  0  0  0  0  0  0  0
  110.4278   67.2334   41.9568 C   0  0  0  0  0  0  0  0  0  0  0  0
  108.3442   68.1836   42.7270 C   0  0  0  0  0  0  0  0  0  0  0  0
  110.5709   67.7406   36.9702 C   0  0  0  0  0  0  0  0  0  0  0  0
  110.4599   65.6676   40.0168 C   0  0  0  0  0  0  0  0  0  0  0  0
  111.0733   65.3386   36.4965 C   0  0  0  0  0  0  0  0  0  0  0  0
  110.7538   67.6533   38.4425 C   0  0  0  0  0  0  0  0  0  0  0  0
  111.7123   65.3837   37.8951 C   0  0  0  0  0  0  0  0  0  0  0  0
  110.0072   70.1739   36.8895 C   0  0  0  0  0  0  0  0  0  0  0  0
  110.2385   68.8766   36.2896 N   0  0  0  0  0  0  0  0  0  0  0  0
  110.9339   66.2296   38.8254 N   0  0  0  0  0  0  0  0  0  0  0  0
  110.5961   64.4930   40.3564 O   0  0  0  0  0  0  0  0  0  0  0  0
  113.4729   74.0917   34.7387 O   0  0  0  0  0  0  0  0  0  0  0  0
  111.7800   67.1224   42.0839 O   0  0  0  0  0  0  0  0  0  0  0  0
  107.4813   69.1974   43.8174 Cl  0  0  0  0  0  0  0  0  0  0  0  0
  110.1185   67.1337   31.3648 H   0  0  0  0  0  0  0  0  0  0  0  0
  109.6023   69.5310   31.7215 H   0  0  0  0  0  0  0  0  0  0  0  0
  110.6683   65.6478   33.2973 H   0  0  0  0  0  0  0  0  0  0  0  0
  107.8180   66.1210   40.0589 H   0  0  0  0  0  0  0  0  0  0  0  0
  112.5301   69.8069   35.9408 H   0  0  0  0  0  0  0  0  0  0  0  0
  109.5089   72.8296   36.5801 H   0  0  0  0  0  0  0  0  0  0  0  0
  109.6209   70.5129   34.0296 H   0  0  0  0  0  0  0  0  0  0  0  0
  114.0584   71.5352   34.9913 H   0  0  0  0  0  0  0  0  0  0  0  0
  111.0375   74.5581   35.6312 H   0  0  0  0  0  0  0  0  0  0  0  0
  106.5674   67.5910   41.6399 H   0  0  0  0  0  0  0  0  0  0  0  0
  110.2689   68.6023   43.6274 H   0  0  0  0  0  0  0  0  0  0  0  0
  110.1645   64.7198   36.5302 H   0  0  0  0  0  0  0  0  0  0  0  0
  111.7906   64.9059   35.7836 H   0  0  0  0  0  0  0  0  0  0  0  0
  111.6428   68.2297   38.7382 H   0  0  0  0  0  0  0  0  0  0  0  0
  109.8698   68.0653   38.9512 H   0  0  0  0  0  0  0  0  0  0  0  0
  111.7602   64.3613   38.2982 H   0  0  0  0  0  0  0  0  0  0  0  0
  112.7187   65.8170   37.7983 H   0  0  0  0  0  0  0  0  0  0  0  0
  110.1779   70.1024   37.9738 H   0  0  0  0  0  0  0  0  0  0  0  0
  108.9706   70.4739   36.6765 H   0  0  0  0  0  0  0  0  0  0  0  0
  113.1770   75.0344   34.6773 H   0  0  0  0  0  0  0  0  0  0  0  0
  112.2895   66.5428   41.4638 H   0  0  0  0  0  0  0  0  0  0  0  0
  1  2  2  0
  1  3  1  0
  2  7  1  0
  3 12  2  0
  4 10  2  0
  4 13  1  0
  5  8  2  0
  5 15  1  0
  6  9  1  0
  6 15  2  0
  7 16  2  0
  8 17  1  0
  9 17  2  0
 10 19  1  0
 11 18  1  0
 11 19  2  0
 12 14  1  0
 12 16  1  0
 13 18  2  0
 13 21  1  0
 14 20  2  0
 14 22  1  0
 15 25  1  0
 16 26  1  0
 17 29  1  0
 18 30  1  0
 19 31  1  0
 20 23  1  0
 20 26  1  0
 21 27  1  0
 21 28  2  0
 22 24  1  0
 23 27  1  0
 24 27  1  0
 25 26  1  0
  1 32  1  0
  2 33  1  0
  3 34  1  0
  4 35  1  0
  5 36  1  0
  6 37  1  0
  7 38  1  0
  8 39  1  0
  9 40  1  0
 10 41  1  0
 11 42  1  0
 22 43  1  0
 22 44  1  0
 23 45  1  0
 23 46  1  0
 24 47  1  0
 24 48  1  0
 25 49  1  0
 25 50  1  0
 29 51  1  0
 30 52  1  0
M  END
>  <Name>  (22) 
CHEMBL309025

>  <Comment>  (22) 
 Schrodinger Suite 2021-4.

>  <s_m_entry_id>  (22) 
1128

>  <class_value>  (22) 
1

>  <s_m_Source_Path>  (22) 
C:\Users\vinicius\Desktop

>  <s_m_Source_File>  (22) 
Ligands_Saureus_o.sdf

>  <i_m_Source_File_Index>  (22) 
44

>  <r_lp_tautomer_probability>  (22) 
0.99999999999473

>  <r_epik_Ionization_Penalty>  (22) 
0.243

>  <r_epik_State_Penalty>  (22) 
0.2336

>  <i_epik_Tot_Q>  (22) 
0

>  <i_f3d_flags>  (22) 
0

>  <s_m_job_name>  (22) 
Saureus_o

>  <FRED Chemgauss4 score>  (22) 
-11.557291

>  <Set>  (22) 
training

>  <HBA count>  (22) 
4

>  <HBD count>  (22) 
2

>  <ExactMolWt>  (22) 
432.12407021200056

>  <NumRotatableBounds>  (22) 
5

>  <FractionCsp3>  (22) 
0.16

>  <TPSA>  (22) 
65.7

>  <LogP_WildmanCrippen>  (22) 
4.9527000000000045

>  <General_Cluster>  (22) 
3

>  <Biological_Cluster>  (22) 
1

>  <Physicochemical_Cluster>  (22) 
1

>  <Structural_Cluster>  (22) 
4

$$$$
CHEMBL566655
     RDKit          3D

 49 52  0  0  0  0  0  0  0  0999 V2000
  111.3353   73.2969   33.7490 C   0  0  0  0  0  0  0  0  0  0  0  0
  111.7874   73.2472   35.0599 C   0  0  0  0  0  0  0  0  0  0  0  0
  110.7424   72.1749   33.1640 C   0  0  0  0  0  0  0  0  0  0  0  0
  111.6575   72.0790   35.8134 C   0  0  0  0  0  0  0  0  0  0  0  0
  110.2198   67.3263   39.5700 C   0  0  0  0  0  0  0  0  0  0  0  0
  112.1701   66.2191   40.3524 C   0  0  0  0  0  0  0  0  0  0  0  0
  110.5962   70.9752   33.9017 C   0  0  0  0  0  0  0  0  0  0  0  0
  111.3673   66.5946   39.2899 C   0  0  0  0  0  0  0  0  0  0  0  0
  109.9012   67.6408   40.8918 C   0  0  0  0  0  0  0  0  0  0  0  0
  110.0295   69.7112   33.5255 C   0  0  0  0  0  0  0  0  0  0  0  0
  111.0593   70.9496   35.2208 C   0  0  0  0  0  0  0  0  0  0  0  0
  110.0741   68.7824   34.5379 C   0  0  0  0  0  0  0  0  0  0  0  0
  110.7703   67.2120   41.8945 C   0  0  0  0  0  0  0  0  0  0  0  0
  109.2985   68.1081   43.6597 C   0  0  0  0  0  0  0  0  0  0  0  0
  111.7207   66.2479   37.9254 C   0  0  0  0  0  0  0  0  0  0  0  0
  110.8659   66.2289   36.8755 C   0  0  0  0  0  0  0  0  0  0  0  0
  111.3454   65.8218   35.5218 C   0  0  0  0  0  0  0  0  0  0  0  0
  108.7267   68.5079   41.2304 C   0  0  0  0  0  0  0  0  0  0  0  0
  108.1996   68.1844   42.6194 C   0  0  0  0  0  0  0  0  0  0  0  0
  109.4547   69.4339   32.1838 C   0  0  0  0  0  0  0  0  0  0  0  0
  111.0795   66.0374   33.0807 C   0  0  0  0  0  0  0  0  0  0  0  0
  109.5873   67.3621   34.5345 C   0  0  0  0  0  0  0  0  0  0  0  0
  111.9044   66.5159   41.6441 N   0  0  0  0  0  0  0  0  0  0  0  0
  110.4822   67.5389   43.2334 N   0  0  0  0  0  0  0  0  0  0  0  0
  110.6889   66.4065   34.4351 N   0  0  0  0  0  0  0  0  0  0  0  0
  109.0994   68.4477   44.8260 O   0  0  0  0  0  0  0  0  0  0  0  0
  112.2535   64.9961   35.4171 O   0  0  0  0  0  0  0  0  0  0  0  0
  110.7936   69.4098   35.9500 S   0  0  0  0  0  0  0  0  0  0  0  0
  111.4442   74.2242   33.1674 H   0  0  0  0  0  0  0  0  0  0  0  0
  112.2526   74.1367   35.5098 H   0  0  0  0  0  0  0  0  0  0  0  0
  110.3871   72.2240   32.1241 H   0  0  0  0  0  0  0  0  0  0  0  0
  112.0163   72.0411   36.8525 H   0  0  0  0  0  0  0  0  0  0  0  0
  109.5637   67.6571   38.7514 H   0  0  0  0  0  0  0  0  0  0  0  0
  113.0811   65.6433   40.1323 H   0  0  0  0  0  0  0  0  0  0  0  0
  112.7688   65.9785   37.7281 H   0  0  0  0  0  0  0  0  0  0  0  0
  109.8136   66.5147   37.0207 H   0  0  0  0  0  0  0  0  0  0  0  0
  109.0363   69.5630   41.1988 H   0  0  0  0  0  0  0  0  0  0  0  0
  107.9277   68.3213   40.4977 H   0  0  0  0  0  0  0  0  0  0  0  0
  107.6825   67.2143   42.5822 H   0  0  0  0  0  0  0  0  0  0  0  0
  107.5196   68.9974   42.9140 H   0  0  0  0  0  0  0  0  0  0  0  0
  108.4693   68.9585   32.2982 H   0  0  0  0  0  0  0  0  0  0  0  0
  109.3444   70.3779   31.6299 H   0  0  0  0  0  0  0  0  0  0  0  0
  110.1249   68.7600   31.6299 H   0  0  0  0  0  0  0  0  0  0  0  0
  111.8784   65.2824   33.1224 H   0  0  0  0  0  0  0  0  0  0  0  0
  110.2106   65.6228   32.5486 H   0  0  0  0  0  0  0  0  0  0  0  0
  111.4443   66.9284   32.5486 H   0  0  0  0  0  0  0  0  0  0  0  0
  109.0363   67.1732   35.4676 H   0  0  0  0  0  0  0  0  0  0  0  0
  108.9395   67.2268   33.6558 H   0  0  0  0  0  0  0  0  0  0  0  0
  111.2025   67.3402   43.9423 H   0  0  0  0  0  0  0  0  0  0  0  0
  1  2  2  0
  1  3  1  0
  2  4  1  0
  3  7  2  0
  4 11  2  0
  5  8  2  0
  5  9  1  0
  6  8  1  0
  6 23  2  0
  7 10  1  0
  7 11  1  0
  8 15  1  0
  9 13  2  0
  9 18  1  0
 10 12  2  0
 10 20  1  0
 11 28  1  0
 12 22  1  0
 12 28  1  0
 13 23  1  0
 13 24  1  0
 14 19  1  0
 14 24  1  0
 14 26  2  0
 15 16  2  0
 16 17  1  0
 17 25  1  0
 17 27  2  0
 18 19  1  0
 21 25  1  0
 22 25  1  0
  1 29  1  0
  2 30  1  0
  3 31  1  0
  4 32  1  0
  5 33  1  0
  6 34  1  0
 15 35  1  0
 16 36  1  0
 18 37  1  0
 18 38  1  0
 19 39  1  0
 19 40  1  0
 20 41  1  0
 20 42  1  0
 20 43  1  0
 21 44  1  0
 21 45  1  0
 21 46  1  0
 22 47  1  0
 22 48  1  0
 24 49  1  0
M  END
>  <Name>  (23) 
CHEMBL566655

>  <Comment>  (23) 
 Schrodinger Suite 2021-4.

>  <s_m_entry_id>  (23) 
1096

>  <class_value>  (23) 
1

>  <s_m_Source_Path>  (23) 
C:\Users\vinicius\Desktop

>  <s_m_Source_File>  (23) 
Ligands_Saureus_o.sdf

>  <i_m_Source_File_Index>  (23) 
19

>  <r_lp_tautomer_probability>  (23) 
1

>  <r_epik_Ionization_Penalty>  (23) 
0.0002

>  <r_epik_State_Penalty>  (23) 
0

>  <i_epik_Tot_Q>  (23) 
0

>  <i_f3d_flags>  (23) 
0

>  <s_m_job_name>  (23) 
Saureus_o

>  <FRED Chemgauss4 score>  (23) 
-17.881325

>  <Set>  (23) 
training

>  <HBA count>  (23) 
4

>  <HBD count>  (23) 
1

>  <ExactMolWt>  (23) 
391.1354479120006

>  <NumRotatableBounds>  (23) 
6

>  <FractionCsp3>  (23) 
0.22727272727272727

>  <TPSA>  (23) 
62.300000000000004

>  <LogP_WildmanCrippen>  (23) 
4.161220000000004

>  <General_Cluster>  (23) 
1

>  <Biological_Cluster>  (23) 
1

>  <Physicochemical_Cluster>  (23) 
1

>  <Structural_Cluster>  (23) 
2

$$$$
CHEMBL2178289
     RDKit          3D

 31 32  0  0  0  0  0  0  0  0999 V2000
  112.4759   67.0163   39.0543 C   0  0  0  0  0  0  0  0  0  0  0  0
  111.7682   66.5764   37.9412 C   0  0  0  0  0  0  0  0  0  0  0  0
  111.2803   66.4996   33.6721 C   0  0  0  0  0  0  0  0  0  0  0  0
  109.3448   66.6369   35.6764 C   0  0  0  0  0  0  0  0  0  0  0  0
  112.5408   66.1771   40.1549 C   0  0  0  0  0  0  0  0  0  0  0  0
  110.2377   67.4208   33.5728 C   0  0  0  0  0  0  0  0  0  0  0  0
  111.1557   65.3283   37.9624 C   0  0  0  0  0  0  0  0  0  0  0  0
  111.3552   65.6470   34.7735 C   0  0  0  0  0  0  0  0  0  0  0  0
  110.3874   65.7157   35.7756 C   0  0  0  0  0  0  0  0  0  0  0  0
  109.2699   67.4895   34.5749 C   0  0  0  0  0  0  0  0  0  0  0  0
  111.2798   64.5646   39.1118 C   0  0  0  0  0  0  0  0  0  0  0  0
  111.1538   69.4865   32.4863 C   0  0  0  0  0  0  0  0  0  0  0  0
  110.1602   68.3312   32.3941 C   0  0  0  0  0  0  0  0  0  0  0  0
  111.9589   64.9582   40.2125 N   0  0  0  0  0  0  0  0  0  0  0  0
  110.6547   63.2926   39.1343 N   0  0  0  0  0  0  0  0  0  0  0  0
  112.3783   64.7516   34.8597 O   0  0  0  0  0  0  0  0  0  0  0  0
  110.4495   64.8884   36.8561 O   0  0  0  0  0  0  0  0  0  0  0  0
  108.2643   68.3714   34.4884 F   0  0  0  0  0  0  0  0  0  0  0  0
  112.9688   67.9997   39.0609 H   0  0  0  0  0  0  0  0  0  0  0  0
  111.6932   67.2132   37.0474 H   0  0  0  0  0  0  0  0  0  0  0  0
  112.0435   66.4455   32.8818 H   0  0  0  0  0  0  0  0  0  0  0  0
  108.5816   66.6911   36.4668 H   0  0  0  0  0  0  0  0  0  0  0  0
  113.1003   66.5240   41.0361 H   0  0  0  0  0  0  0  0  0  0  0  0
  111.3516   69.7165   33.5436 H   0  0  0  0  0  0  0  0  0  0  0  0
  112.0938   69.2021   31.9908 H   0  0  0  0  0  0  0  0  0  0  0  0
  110.7319   70.3734   31.9908 H   0  0  0  0  0  0  0  0  0  0  0  0
  110.3759   67.7512   31.4847 H   0  0  0  0  0  0  0  0  0  0  0  0
  109.1477   68.7603   32.3671 H   0  0  0  0  0  0  0  0  0  0  0  0
  110.7265   62.6982   39.9724 H   0  0  0  0  0  0  0  0  0  0  0  0
  110.1287   62.9627   38.3125 H   0  0  0  0  0  0  0  0  0  0  0  0
  112.4390   64.1428   35.6380 H   0  0  0  0  0  0  0  0  0  0  0  0
  1  2  2  0
  1  5  1  0
  2  7  1  0
  3  6  2  0
  3  8  1  0
  4  9  1  0
  4 10  2  0
  5 14  2  0
  6 10  1  0
  6 13  1  0
  7 11  2  0
  7 17  1  0
  8  9  2  0
  8 16  1  0
  9 17  1  0
 10 18  1  0
 11 14  1  0
 11 15  1  0
 12 13  1  0
  1 19  1  0
  2 20  1  0
  3 21  1  0
  4 22  1  0
  5 23  1  0
 12 24  1  0
 12 25  1  0
 12 26  1  0
 13 27  1  0
 13 28  1  0
 15 29  1  0
 15 30  1  0
 16 31  1  0
M  END
>  <Name>  (24) 
CHEMBL2178289

>  <Comment>  (24) 
 Schrodinger Suite 2021-4.

>  <s_m_entry_id>  (24) 
1103

>  <class_value>  (24) 
1

>  <s_m_Source_Path>  (24) 
C:\Users\vinicius\Desktop

>  <s_m_Source_File>  (24) 
Ligands_Saureus_o.sdf

>  <i_m_Source_File_Index>  (24) 
25

>  <r_lp_tautomer_probability>  (24) 
0.999999404452937

>  <r_epik_Ionization_Penalty>  (24) 
0.0082

>  <r_epik_State_Penalty>  (24) 
0.0053

>  <i_epik_Tot_Q>  (24) 
0

>  <i_f3d_flags>  (24) 
0

>  <s_m_job_name>  (24) 
Saureus_o

>  <FRED Chemgauss4 score>  (24) 
-12.381166

>  <Set>  (24) 
training

>  <HBA count>  (24) 
4

>  <HBD count>  (24) 
2

>  <ExactMolWt>  (24) 
248.096105876

>  <NumRotatableBounds>  (24) 
6

>  <FractionCsp3>  (24) 
0.15384615384615385

>  <TPSA>  (24) 
68.37

>  <LogP_WildmanCrippen>  (24) 
2.8632000000000004

>  <General_Cluster>  (24) 
4

>  <Biological_Cluster>  (24) 
1

>  <Physicochemical_Cluster>  (24) 
3

>  <Structural_Cluster>  (24) 
1

$$$$
CHEMBL2178305
     RDKit          3D

 30 31  0  0  0  0  0  0  0  0999 V2000
  111.6135   71.1596   32.2614 C   0  0  0  0  0  0  0  0  0  0  0  0
  110.6849   70.1045   34.2625 C   0  0  0  0  0  0  0  0  0  0  0  0
  110.2303   68.9706   34.9358 C   0  0  0  0  0  0  0  0  0  0  0  0
  111.1568   68.7577   32.3130 C   0  0  0  0  0  0  0  0  0  0  0  0
  112.1703   65.0685   37.3233 C   0  0  0  0  0  0  0  0  0  0  0  0
  109.9788   66.7948   37.3254 C   0  0  0  0  0  0  0  0  0  0  0  0
  111.1481   69.9980   32.9511 C   0  0  0  0  0  0  0  0  0  0  0  0
  111.7005   65.5977   38.5253 C   0  0  0  0  0  0  0  0  0  0  0  0
  111.5445   65.4025   36.1223 C   0  0  0  0  0  0  0  0  0  0  0  0
  110.2389   67.7303   34.2977 C   0  0  0  0  0  0  0  0  0  0  0  0
  110.4487   66.2656   36.1233 C   0  0  0  0  0  0  0  0  0  0  0  0
  110.7022   67.6238   32.9863 C   0  0  0  0  0  0  0  0  0  0  0  0
  110.6048   66.4608   38.5264 C   0  0  0  0  0  0  0  0  0  0  0  0
  113.2714   66.3618   40.3240 C   0  0  0  0  0  0  0  0  0  0  0  0
  112.3713   65.2417   39.8091 C   0  0  0  0  0  0  0  0  0  0  0  0
  111.9915   72.1031   31.7012 N   0  0  0  0  0  0  0  0  0  0  0  0
  111.9894   64.9060   35.0262 O   0  0  0  0  0  1  0  0  0  0  0  0
  109.7957   66.6247   34.9562 O   0  0  0  0  0  0  0  0  0  0  0  0
  110.7128   66.4349   32.3680 F   0  0  0  0  0  0  0  0  0  0  0  0
  110.1468   66.9751   39.6764 F   0  0  0  0  0  0  0  0  0  0  0  0
  110.6781   71.0826   34.7657 H   0  0  0  0  0  0  0  0  0  0  0  0
  109.8650   69.0545   35.9700 H   0  0  0  0  0  0  0  0  0  0  0  0
  111.5221   68.6738   31.2788 H   0  0  0  0  0  0  0  0  0  0  0  0
  113.0343   64.3877   37.3225 H   0  0  0  0  0  0  0  0  0  0  0  0
  109.1147   67.4754   37.3263 H   0  0  0  0  0  0  0  0  0  0  0  0
  113.2685   66.3582   41.4240 H   0  0  0  0  0  0  0  0  0  0  0  0
  114.2973   66.2046   39.9595 H   0  0  0  0  0  0  0  0  0  0  0  0
  112.8971   67.3298   39.9595 H   0  0  0  0  0  0  0  0  0  0  0  0
  111.5999   65.0325   40.5649 H   0  0  0  0  0  0  0  0  0  0  0  0
  113.0035   64.3606   39.6247 H   0  0  0  0  0  0  0  0  0  0  0  0
  1  7  1  0
  1 16  3  0
  2  3  2  0
  2  7  1  0
  3 10  1  0
  4  7  2  0
  4 12  1  0
  5  8  2  0
  5  9  1  0
  6 11  1  0
  6 13  2  0
  8 13  1  0
  8 15  1  0
  9 11  2  0
  9 17  1  0
 10 12  2  0
 10 18  1  0
 11 18  1  0
 12 19  1  0
 13 20  1  0
 14 15  1  0
  2 21  1  0
  3 22  1  0
  4 23  1  0
  5 24  1  0
  6 25  1  0
 14 26  1  0
 14 27  1  0
 14 28  1  0
 15 29  1  0
 15 30  1  0
M  CHG  1  17  -1
M  END
>  <Name>  (25) 
CHEMBL2178305

>  <Comment>  (25) 
 Schrodinger Suite 2021-4.

>  <s_m_entry_id>  (25) 
1094

>  <class_value>  (25) 
1

>  <s_m_Source_Path>  (25) 
C:\Users\vinicius\Desktop

>  <s_m_Source_File>  (25) 
Ligands_Saureus_o.sdf

>  <i_m_Source_File_Index>  (25) 
17

>  <r_epik_Ionization_Penalty>  (25) 
1.6592

>  <r_epik_State_Penalty>  (25) 
1.7619

>  <i_epik_Tot_Q>  (25) 
-1

>  <i_f3d_flags>  (25) 
0

>  <s_m_job_name>  (25) 
Saureus_o

>  <FRED Chemgauss4 score>  (25) 
-13.067442

>  <Set>  (25) 
training

>  <HBA count>  (25) 
3

>  <HBD count>  (25) 
0

>  <ExactMolWt>  (25) 
274.06850857991026

>  <NumRotatableBounds>  (25) 
4

>  <FractionCsp3>  (25) 
0.13333333333333333

>  <TPSA>  (25) 
56.08

>  <LogP_WildmanCrippen>  (25) 
3.264780000000002

>  <General_Cluster>  (25) 
4

>  <Biological_Cluster>  (25) 
1

>  <Physicochemical_Cluster>  (25) 
3

>  <Structural_Cluster>  (25) 
1

$$$$
CHEMBL3621228
     RDKit          3D

 39 41  0  0  0  0  0  0  0  0999 V2000
  110.2494   66.1017   35.4690 C   0  0  0  0  0  0  0  0  0  0  0  0
  110.7948   66.1093   36.7528 C   0  0  0  0  0  0  0  0  0  0  0  0
  106.3187   62.2139   43.7257 C   0  0  0  0  0  0  0  0  0  0  0  0
  110.4013   68.5116   35.3902 C   0  0  0  0  0  0  0  0  0  0  0  0
  105.5088   62.2389   44.8371 C   0  0  0  0  0  0  0  0  0  0  0  0
  106.4401   64.2058   44.7227 C   0  0  0  0  0  0  0  0  0  0  0  0
  106.9237   63.4913   43.6515 C   0  0  0  0  0  0  0  0  0  0  0  0
  110.0527   67.3028   34.7877 C   0  0  0  0  0  0  0  0  0  0  0  0
  110.9466   68.5192   36.6740 C   0  0  0  0  0  0  0  0  0  0  0  0
  111.1433   67.3180   37.3553 C   0  0  0  0  0  0  0  0  0  0  0  0
  110.5161   65.0682   41.4404 C   0  0  0  0  0  0  0  0  0  0  0  0
  109.6989   67.2545   39.9327 C   0  0  0  0  0  0  0  0  0  0  0  0
  110.9040   66.7658   39.6157 C   0  0  0  0  0  0  0  0  0  0  0  0
  109.3380   65.6691   41.6357 C   0  0  0  0  0  0  0  0  0  0  0  0
  111.4051   65.5974   40.3796 C   0  0  0  0  0  0  0  0  0  0  0  0
  107.8799   63.9919   42.6487 C   0  0  0  0  0  0  0  0  0  0  0  0
  108.4139   65.2213   42.6428 C   0  0  0  0  0  0  0  0  0  0  0  0
  109.4710   67.2939   33.4145 C   0  0  0  0  0  0  0  0  0  0  0  0
  111.3153   69.8221   37.3035 C   0  0  0  0  0  0  0  0  0  0  0  0
  112.4972   65.0909   40.1513 O   0  0  0  0  0  0  0  0  0  0  0  0
  105.5770   63.4495   45.4504 O   0  0  0  0  0  0  0  0  0  0  0  0
  108.8815   66.7547   40.9187 O   0  0  0  0  0  0  0  0  0  0  0  0
  111.6755   67.3070   38.6158 O   0  0  0  0  0  0  0  0  0  0  0  0
  109.9744   65.1485   34.9939 H   0  0  0  0  0  0  0  0  0  0  0  0
  110.9501   65.1621   37.2900 H   0  0  0  0  0  0  0  0  0  0  0  0
  106.4664   61.3713   43.0342 H   0  0  0  0  0  0  0  0  0  0  0  0
  110.2462   69.4588   34.8529 H   0  0  0  0  0  0  0  0  0  0  0  0
  104.8916   61.3960   45.1816 H   0  0  0  0  0  0  0  0  0  0  0  0
  106.7139   65.2449   44.9576 H   0  0  0  0  0  0  0  0  0  0  0  0
  110.8174   64.2041   42.0508 H   0  0  0  0  0  0  0  0  0  0  0  0
  109.3352   68.1212   39.3613 H   0  0  0  0  0  0  0  0  0  0  0  0
  108.1783   63.3044   41.8435 H   0  0  0  0  0  0  0  0  0  0  0  0
  108.1326   65.9196   43.4448 H   0  0  0  0  0  0  0  0  0  0  0  0
  108.3732   67.2771   33.4814 H   0  0  0  0  0  0  0  0  0  0  0  0
  109.7916   68.1971   32.8746 H   0  0  0  0  0  0  0  0  0  0  0  0
  109.8191   66.4010   32.8746 H   0  0  0  0  0  0  0  0  0  0  0  0
  111.2868   69.7213   38.3985 H   0  0  0  0  0  0  0  0  0  0  0  0
  112.3296   70.1078   36.9879 H   0  0  0  0  0  0  0  0  0  0  0  0
  110.6012   70.5969   36.9879 H   0  0  0  0  0  0  0  0  0  0  0  0
  1  2  2  0
  1  8  1  0
  2 10  1  0
  3  5  2  0
  3  7  1  0
  4  8  2  0
  4  9  1  0
  5 21  1  0
  6  7  2  0
  6 21  1  0
  7 16  1  0
  8 18  1  0
  9 10  2  0
  9 19  1  0
 10 23  1  0
 11 14  2  0
 11 15  1  0
 12 13  2  0
 12 22  1  0
 13 15  1  0
 13 23  1  0
 14 17  1  0
 14 22  1  0
 15 20  2  0
 16 17  2  0
  1 24  1  0
  2 25  1  0
  3 26  1  0
  4 27  1  0
  5 28  1  0
  6 29  1  0
 11 30  1  0
 12 31  1  0
 16 32  1  0
 17 33  1  0
 18 34  1  0
 18 35  1  0
 18 36  1  0
 19 37  1  0
 19 38  1  0
 19 39  1  0
M  END
>  <Name>  (26) 
CHEMBL3621228

>  <Comment>  (26) 
 Schrodinger Suite 2021-4.

>  <s_m_entry_id>  (26) 
1224

>  <class_value>  (26) 
0

>  <s_m_Source_Path>  (26) 
C:\Users\vinicius\Desktop

>  <s_m_Source_File>  (26) 
Ligands_Saureus_o.sdf

>  <i_m_Source_File_Index>  (26) 
119

>  <r_lp_tautomer_probability>  (26) 
1

>  <r_epik_Ionization_Penalty>  (26) 
0

>  <r_epik_State_Penalty>  (26) 
0

>  <i_epik_Tot_Q>  (26) 
0

>  <i_f3d_flags>  (26) 
0

>  <s_m_job_name>  (26) 
Saureus_o

>  <FRED Chemgauss4 score>  (26) 
-11.313066

>  <Set>  (26) 
training

>  <HBA count>  (26) 
4

>  <HBD count>  (26) 
0

>  <ExactMolWt>  (26) 
308.1048589920004

>  <NumRotatableBounds>  (26) 
6

>  <FractionCsp3>  (26) 
0.10526315789473684

>  <TPSA>  (26) 
52.58

>  <LogP_WildmanCrippen>  (26) 
4.812340000000003

>  <General_Cluster>  (26) 
4

>  <Biological_Cluster>  (26) 
2

>  <Physicochemical_Cluster>  (26) 
1

>  <Structural_Cluster>  (26) 
1

$$$$
CHEMBL4209685
     RDKit          3D

 43 45  0  0  1  0  0  0  0  0999 V2000
  111.7234   71.1412   31.7577 C   0  0  0  0  0  0  0  0  0  0  0  0
  109.5536   67.2846   40.7580 C   0  0  0  0  0  0  0  0  0  0  0  0
  112.0703   72.2787   32.4867 C   0  0  0  0  0  0  0  0  0  0  0  0
  109.9310   66.2795   41.6485 C   0  0  0  0  0  0  0  0  0  0  0  0
  111.1259   70.0566   32.3999 C   0  0  0  0  0  0  0  0  0  0  0  0
  110.1510   67.3621   39.4999 C   0  0  0  0  0  0  0  0  0  0  0  0
  111.8200   72.3315   33.8579 C   0  0  0  0  0  0  0  0  0  0  0  0
  110.9058   65.3520   41.2810 C   0  0  0  0  0  0  0  0  0  0  0  0
  110.8755   70.1094   33.7710 C   0  0  0  0  0  0  0  0  0  0  0  0
  111.1259   66.4347   39.1324 C   0  0  0  0  0  0  0  0  0  0  0  0
  111.2225   71.2469   34.5001 C   0  0  0  0  0  0  0  0  0  0  0  0
  111.5033   65.4296   40.0229 C   0  0  0  0  0  0  0  0  0  0  0  0
  110.8580   66.0131   36.6874 C   0  0  0  0  0  0  0  0  0  0  0  0
  109.9162   67.7052   33.5629 C   0  0  0  0  0  0  0  0  0  0  0  0
  109.7044   66.5809   34.5643 C   0  0  0  0  0  0  0  0  0  0  0  0
  111.0661   68.2847   35.5694 C   0  0  0  0  0  0  0  0  0  0  0  0
  110.2271   68.9232   34.4509 C   0  0  1  0  0  0  0  0  0  0  0  0
  111.3721   72.5145   36.5067 C   0  0  0  0  0  0  0  0  0  0  0  0
  111.7659   66.5213   37.7787 C   0  0  0  0  0  0  0  0  0  0  0  0
  110.5693   66.9175   35.6813 N   0  0  0  0  0  0  0  0  0  0  0  0
  110.4174   64.8631   36.7279 O   0  0  0  0  0  0  0  0  0  0  0  0
  110.9856   71.3144   35.8401 O   0  0  0  0  0  0  0  0  0  0  0  0
  112.4389   64.5337   39.6786 F   0  0  0  0  0  0  0  0  0  0  0  0
  111.9210   71.0995   30.6764 H   0  0  0  0  0  0  0  0  0  0  0  0
  108.7849   68.0161   41.0479 H   0  0  0  0  0  0  0  0  0  0  0  0
  112.5413   73.1341   31.9802 H   0  0  0  0  0  0  0  0  0  0  0  0
  109.4599   66.2183   42.6406 H   0  0  0  0  0  0  0  0  0  0  0  0
  110.8522   69.1596   31.8250 H   0  0  0  0  0  0  0  0  0  0  0  0
  109.8533   68.1546   38.7976 H   0  0  0  0  0  0  0  0  0  0  0  0
  112.0938   73.2284   34.4328 H   0  0  0  0  0  0  0  0  0  0  0  0
  111.2034   64.5594   41.9833 H   0  0  0  0  0  0  0  0  0  0  0  0
  110.7595   67.4814   32.8930 H   0  0  0  0  0  0  0  0  0  0  0  0
  109.0477   67.8638   32.9067 H   0  0  0  0  0  0  0  0  0  0  0  0
  108.6532   66.5400   34.8857 H   0  0  0  0  0  0  0  0  0  0  0  0
  109.9377   65.5938   34.1387 H   0  0  0  0  0  0  0  0  0  0  0  0
  112.1331   68.2876   35.3019 H   0  0  0  0  0  0  0  0  0  0  0  0
  110.9774   68.8352   36.5176 H   0  0  0  0  0  0  0  0  0  0  0  0
  109.3134   69.4235   34.8042 H   0  0  0  0  0  0  0  0  0  0  0  0
  111.3229   72.3616   37.5949 H   0  0  0  0  0  0  0  0  0  0  0  0
  112.4007   72.7784   36.2197 H   0  0  0  0  0  0  0  0  0  0  0  0
  110.6909   73.3291   36.2197 H   0  0  0  0  0  0  0  0  0  0  0  0
  112.0157   67.5723   37.5713 H   0  0  0  0  0  0  0  0  0  0  0  0
  112.6673   65.8909   37.7897 H   0  0  0  0  0  0  0  0  0  0  0  0
  1  3  2  0
  1  5  1  0
  2  4  2  0
  2  6  1  0
  3  7  1  0
  4  8  1  0
  5  9  2  0
  6 10  2  0
  7 11  2  0
  8 12  2  0
  9 11  1  0
  9 17  1  0
 10 12  1  0
 10 19  1  0
 11 22  1  0
 12 23  1  0
 13 19  1  0
 13 20  1  0
 13 21  2  0
 14 15  1  0
 14 17  1  0
 15 20  1  0
 16 17  1  0
 16 20  1  0
 18 22  1  0
  1 24  1  0
  2 25  1  0
  3 26  1  0
  4 27  1  0
  5 28  1  0
  6 29  1  0
  7 30  1  0
  8 31  1  0
 14 32  1  0
 14 33  1  0
 15 34  1  0
 15 35  1  0
 16 36  1  0
 16 37  1  0
 17 38  1  1
 18 39  1  0
 18 40  1  0
 18 41  1  0
 19 42  1  0
 19 43  1  0
M  END
>  <Name>  (27) 
CHEMBL4209685

>  <Comment>  (27) 
 Schrodinger Suite 2021-4.

>  <s_m_entry_id>  (27) 
1464

>  <s_m_Source_Path>  (27) 
C:\Users\vinicius\Desktop

>  <s_m_Source_File>  (27) 
Ligands_Saureus_failomega.smi

>  <i_m_Source_File_Index>  (27) 
21

>  <r_lp_tautomer_probability>  (27) 
1

>  <r_epik_Ionization_Penalty>  (27) 
0

>  <r_epik_State_Penalty>  (27) 
0

>  <i_epik_Tot_Q>  (27) 
0

>  <i_f3d_flags>  (27) 
0

>  <s_m_job_name>  (27) 
Saureus_fail

>  <class_value>  (27) 
0

>  <FRED Chemgauss4 score>  (27) 
-13.769940

>  <Set>  (27) 
training

>  <HBA count>  (27) 
2

>  <HBD count>  (27) 
0

>  <ExactMolWt>  (27) 
313.14780710000053

>  <NumRotatableBounds>  (27) 
5

>  <FractionCsp3>  (27) 
0.3157894736842105

>  <TPSA>  (27) 
29.540000000000003

>  <LogP_WildmanCrippen>  (27) 
3.392900000000002

>  <General_Cluster>  (27) 
2

>  <Biological_Cluster>  (27) 
2

>  <Physicochemical_Cluster>  (27) 
3

>  <Structural_Cluster>  (27) 
3

$$$$
CHEMBL3676410
     RDKit          3D

 52 56  0  0  1  0  0  0  0  0999 V2000
  112.1175   72.7813   36.8833 C   0  0  0  0  0  0  0  0  0  0  0  0
  111.1808   72.5208   37.8911 C   0  0  0  0  0  0  0  0  0  0  0  0
  112.1752   71.9956   35.7231 C   0  0  0  0  0  0  0  0  0  0  0  0
  110.2657   71.4681   37.7828 C   0  0  0  0  0  0  0  0  0  0  0  0
  109.8268   67.2917   39.3029 C   0  0  0  0  0  0  0  0  0  0  0  0
  112.0125   66.5673   39.8858 C   0  0  0  0  0  0  0  0  0  0  0  0
  111.0582   66.7840   38.9076 C   0  0  0  0  0  0  0  0  0  0  0  0
  109.5809   67.5465   40.6529 C   0  0  0  0  0  0  0  0  0  0  0  0
  111.2649   70.9363   35.5989 C   0  0  0  0  0  0  0  0  0  0  0  0
  110.3536   70.7124   36.6203 C   0  0  0  0  0  0  0  0  0  0  0  0
  110.6042   67.2896   41.5646 C   0  0  0  0  0  0  0  0  0  0  0  0
  110.0827   69.2779   35.0506 C   0  0  0  0  0  0  0  0  0  0  0  0
  109.1643   67.9042   43.4710 C   0  0  0  0  0  0  0  0  0  0  0  0
  111.3443   66.4996   37.4906 C   0  0  0  0  0  0  0  0  0  0  0  0
  110.4166   66.3216   36.5382 C   0  0  0  0  0  0  0  0  0  0  0  0
  110.7532   66.0284   35.1297 C   0  0  0  0  0  0  0  0  0  0  0  0
  108.3035   68.1826   41.1109 C   0  0  0  0  0  0  0  0  0  0  0  0
  107.9776   67.7721   42.5382 C   0  0  0  0  0  0  0  0  0  0  0  0
  109.6351   68.8049   31.9427 C   0  0  0  0  0  0  0  0  0  0  0  0
  110.8331   67.8619   31.8844 C   0  0  0  0  0  0  0  0  0  0  0  0
  108.6834   68.4941   33.0941 C   0  0  0  0  0  0  0  0  0  0  0  0
  110.6637   66.6215   32.7511 C   0  0  0  0  0  0  0  0  0  0  0  0
  109.4123   68.0789   34.3855 C   0  0  1  0  0  0  0  0  0  0  0  0
  111.8188   66.8144   41.2005 N   0  0  0  0  0  0  0  0  0  0  0  0
  111.0787   70.0098   34.6017 N   0  0  0  0  0  0  0  0  0  0  0  0
  110.3875   67.5623   42.9289 N   0  0  0  0  0  0  0  0  0  0  0  0
  110.3211   66.9268   34.1471 N   0  0  0  0  0  0  0  0  0  0  0  0
  109.0161   68.2053   44.6552 O   0  0  0  0  0  0  0  0  0  0  0  0
  111.3990   65.0033   34.9022 O   0  0  0  0  0  0  0  0  0  0  0  0
  109.5869   69.6390   36.2672 O   0  0  0  0  0  0  0  0  0  0  0  0
  112.8213   73.6180   37.0039 H   0  0  0  0  0  0  0  0  0  0  0  0
  111.1641   73.1579   38.7877 H   0  0  0  0  0  0  0  0  0  0  0  0
  112.9126   72.2041   34.9340 H   0  0  0  0  0  0  0  0  0  0  0  0
  109.5249   71.2528   38.5669 H   0  0  0  0  0  0  0  0  0  0  0  0
  109.0472   67.4924   38.5533 H   0  0  0  0  0  0  0  0  0  0  0  0
  112.9895   66.1692   39.5742 H   0  0  0  0  0  0  0  0  0  0  0  0
  112.4001   66.4277   37.1905 H   0  0  0  0  0  0  0  0  0  0  0  0
  109.3557   66.3975   36.8189 H   0  0  0  0  0  0  0  0  0  0  0  0
  108.4088   69.2766   41.0654 H   0  0  0  0  0  0  0  0  0  0  0  0
  107.4876   67.8488   40.4529 H   0  0  0  0  0  0  0  0  0  0  0  0
  107.6472   66.7229   42.5357 H   0  0  0  0  0  0  0  0  0  0  0  0
  107.1899   68.4462   42.9058 H   0  0  0  0  0  0  0  0  0  0  0  0
  110.0052   69.8338   32.0626 H   0  0  0  0  0  0  0  0  0  0  0  0
  109.0708   68.6761   31.0073 H   0  0  0  0  0  0  0  0  0  0  0  0
  110.9761   67.5427   30.8415 H   0  0  0  0  0  0  0  0  0  0  0  0
  111.7025   68.4141   32.2708 H   0  0  0  0  0  0  0  0  0  0  0  0
  108.0832   69.3917   33.3041 H   0  0  0  0  0  0  0  0  0  0  0  0
  108.0585   67.6441   32.7826 H   0  0  0  0  0  0  0  0  0  0  0  0
  109.8610   66.0036   32.3223 H   0  0  0  0  0  0  0  0  0  0  0  0
  111.6312   66.0982   32.7614 H   0  0  0  0  0  0  0  0  0  0  0  0
  108.6686   67.7178   35.1111 H   0  0  0  0  0  0  0  0  0  0  0  0
  111.1953   67.5028   43.5651 H   0  0  0  0  0  0  0  0  0  0  0  0
  1  2  2  0
  1  3  1  0
  2  4  1  0
  3  9  2  0
  4 10  2  0
  5  7  2  0
  5  8  1  0
  6  7  1  0
  6 24  2  0
  7 14  1  0
  8 11  2  0
  8 17  1  0
  9 10  1  0
  9 25  1  0
 10 30  1  0
 11 24  1  0
 11 26  1  0
 12 23  1  0
 12 25  2  0
 12 30  1  0
 13 18  1  0
 13 26  1  0
 13 28  2  0
 14 15  2  0
 15 16  1  0
 16 27  1  0
 16 29  2  0
 17 18  1  0
 19 20  1  0
 19 21  1  0
 20 22  1  0
 21 23  1  0
 22 27  1  0
 23 27  1  0
  1 31  1  0
  2 32  1  0
  3 33  1  0
  4 34  1  0
  5 35  1  0
  6 36  1  0
 14 37  1  0
 15 38  1  0
 17 39  1  0
 17 40  1  0
 18 41  1  0
 18 42  1  0
 19 43  1  0
 19 44  1  0
 20 45  1  0
 20 46  1  0
 21 47  1  0
 21 48  1  0
 22 49  1  0
 22 50  1  0
 23 51  1  1
 26 52  1  0
M  END
>  <Name>  (28) 
CHEMBL3676410

>  <Comment>  (28) 
 Schrodinger Suite 2021-4.

>  <s_m_entry_id>  (28) 
1212

>  <class_value>  (28) 
0

>  <s_m_Source_Path>  (28) 
C:\Users\vinicius\Desktop

>  <s_m_Source_File>  (28) 
Ligands_Saureus_o.sdf

>  <i_m_Source_File_Index>  (28) 
109

>  <r_lp_tautomer_probability>  (28) 
1

>  <r_epik_Ionization_Penalty>  (28) 
0.0002

>  <r_epik_State_Penalty>  (28) 
0

>  <i_epik_Tot_Q>  (28) 
0

>  <i_f3d_flags>  (28) 
0

>  <s_m_job_name>  (28) 
Saureus_o

>  <FRED Chemgauss4 score>  (28) 
-11.622713

>  <Set>  (28) 
training

>  <HBA count>  (28) 
5

>  <HBD count>  (28) 
1

>  <ExactMolWt>  (28) 
402.16919056400064

>  <NumRotatableBounds>  (28) 
3

>  <FractionCsp3>  (28) 
0.30434782608695654

>  <TPSA>  (28) 
88.33

>  <LogP_WildmanCrippen>  (28) 
3.874500000000003

>  <General_Cluster>  (28) 
1

>  <Biological_Cluster>  (28) 
2

>  <Physicochemical_Cluster>  (28) 
1

>  <Structural_Cluster>  (28) 
2

$$$$
CHEMBL4210599
     RDKit          3D

 43 45  0  0  1  0  0  0  0  0999 V2000
  108.8706   68.4588   41.8713 C   0  0  0  0  0  0  0  0  0  0  0  0
  108.0614   67.7679   42.7732 C   0  0  0  0  0  0  0  0  0  0  0  0
  110.6389   67.8272   32.2795 C   0  0  0  0  0  0  0  0  0  0  0  0
  109.6174   67.7569   40.9250 C   0  0  0  0  0  0  0  0  0  0  0  0
  110.4620   66.7641   33.1650 C   0  0  0  0  0  0  0  0  0  0  0  0
  107.9992   66.3751   42.7291 C   0  0  0  0  0  0  0  0  0  0  0  0
  110.6644   69.1371   32.7585 C   0  0  0  0  0  0  0  0  0  0  0  0
  109.5552   66.3642   40.8809 C   0  0  0  0  0  0  0  0  0  0  0  0
  110.3104   67.0108   34.5295 C   0  0  0  0  0  0  0  0  0  0  0  0
  108.7461   65.6732   41.7829 C   0  0  0  0  0  0  0  0  0  0  0  0
  110.5127   69.3838   34.1230 C   0  0  0  0  0  0  0  0  0  0  0  0
  110.3357   68.3207   35.0085 C   0  0  0  0  0  0  0  0  0  0  0  0
  111.3726   65.5607   36.2603 C   0  0  0  0  0  0  0  0  0  0  0  0
  111.8953   65.8412   39.8882 C   0  0  0  0  0  0  0  0  0  0  0  0
  112.3624   65.3514   38.5268 C   0  0  0  0  0  0  0  0  0  0  0  0
  110.0469   65.9730   38.3877 C   0  0  0  0  0  0  0  0  0  0  0  0
  110.3728   65.6195   39.8478 C   0  0  2  0  0  0  0  0  0  0  0  0
  107.8228   63.6883   42.7120 C   0  0  0  0  0  0  0  0  0  0  0  0
  110.1198   65.8653   35.4786 C   0  0  0  0  0  0  0  0  0  0  0  0
  111.2484   65.6256   37.6366 N   0  0  0  0  0  0  0  0  0  0  0  0
  112.4175   65.2704   35.6754 O   0  0  0  0  0  0  0  0  0  0  0  0
  108.6746   64.3129   41.7538 O   0  0  0  0  0  0  0  0  0  0  0  0
  110.5373   70.6414   34.5828 F   0  0  0  0  0  0  0  0  0  0  0  0
  110.1910   68.5677   36.3180 F   0  0  0  0  0  0  0  0  0  0  0  0
  108.9199   69.5571   41.9063 H   0  0  0  0  0  0  0  0  0  0  0  0
  107.4723   68.3214   43.5192 H   0  0  0  0  0  0  0  0  0  0  0  0
  110.7583   67.6327   31.2034 H   0  0  0  0  0  0  0  0  0  0  0  0
  110.2554   68.3018   40.2136 H   0  0  0  0  0  0  0  0  0  0  0  0
  110.4420   65.7312   32.7873 H   0  0  0  0  0  0  0  0  0  0  0  0
  107.3612   65.8302   43.4405 H   0  0  0  0  0  0  0  0  0  0  0  0
  110.8041   69.9755   32.0602 H   0  0  0  0  0  0  0  0  0  0  0  0
  112.3566   65.2547   40.6964 H   0  0  0  0  0  0  0  0  0  0  0  0
  112.1704   66.8881   40.0840 H   0  0  0  0  0  0  0  0  0  0  0  0
  113.2607   65.8984   38.2046 H   0  0  0  0  0  0  0  0  0  0  0  0
  112.6348   64.2857   38.5379 H   0  0  0  0  0  0  0  0  0  0  0  0
  109.1860   65.3883   38.0315 H   0  0  0  0  0  0  0  0  0  0  0  0
  109.7787   67.0333   38.2698 H   0  0  0  0  0  0  0  0  0  0  0  0
  110.0924   64.5947   40.1329 H   0  0  0  0  0  0  0  0  0  0  0  0
  108.1657   63.9398   43.7265 H   0  0  0  0  0  0  0  0  0  0  0  0
  106.7917   64.0460   42.5743 H   0  0  0  0  0  0  0  0  0  0  0  0
  107.8539   62.5974   42.5743 H   0  0  0  0  0  0  0  0  0  0  0  0
  109.3148   66.1195   36.1839 H   0  0  0  0  0  0  0  0  0  0  0  0
  109.8655   64.9739   34.8863 H   0  0  0  0  0  0  0  0  0  0  0  0
  1  2  2  0
  1  4  1  0
  2  6  1  0
  3  5  2  0
  3  7  1  0
  4  8  2  0
  5  9  1  0
  6 10  2  0
  7 11  2  0
  8 10  1  0
  8 17  1  0
  9 12  2  0
  9 19  1  0
 10 22  1  0
 11 12  1  0
 11 23  1  0
 12 24  1  0
 13 19  1  0
 13 20  1  0
 13 21  2  0
 14 15  1  0
 14 17  1  0
 15 20  1  0
 16 17  1  0
 16 20  1  0
 18 22  1  0
  1 25  1  0
  2 26  1  0
  3 27  1  0
  4 28  1  0
  5 29  1  0
  6 30  1  0
  7 31  1  0
 14 32  1  0
 14 33  1  0
 15 34  1  0
 15 35  1  0
 16 36  1  0
 16 37  1  0
 17 38  1  6
 18 39  1  0
 18 40  1  0
 18 41  1  0
 19 42  1  0
 19 43  1  0
M  END
>  <Name>  (29) 
CHEMBL4210599

>  <Comment>  (29) 
 Schrodinger Suite 2021-4.

>  <s_m_entry_id>  (29) 
1455

>  <s_m_Source_Path>  (29) 
C:\Users\vinicius\Desktop

>  <s_m_Source_File>  (29) 
Ligands_Saureus_failomega.smi

>  <i_m_Source_File_Index>  (29) 
16

>  <r_lp_tautomer_probability>  (29) 
1

>  <r_epik_Ionization_Penalty>  (29) 
0

>  <r_epik_State_Penalty>  (29) 
0

>  <i_epik_Tot_Q>  (29) 
0

>  <i_f3d_flags>  (29) 
0

>  <s_m_job_name>  (29) 
Saureus_fail

>  <class_value>  (29) 
0

>  <FRED Chemgauss4 score>  (29) 
-14.017731

>  <Set>  (29) 
training

>  <HBA count>  (29) 
2

>  <HBD count>  (29) 
0

>  <ExactMolWt>  (29) 
331.1383852880005

>  <NumRotatableBounds>  (29) 
5

>  <FractionCsp3>  (29) 
0.3157894736842105

>  <TPSA>  (29) 
29.540000000000003

>  <LogP_WildmanCrippen>  (29) 
3.5320000000000027

>  <General_Cluster>  (29) 
2

>  <Biological_Cluster>  (29) 
2

>  <Physicochemical_Cluster>  (29) 
3

>  <Structural_Cluster>  (29) 
3

$$$$
CHEMBL2018876
     RDKit          3D

 40 42  0  0  0  0  0  0  0  0999 V2000
  109.7671   67.2920   31.8585 C   0  0  0  0  0  0  0  0  0  0  0  0
  109.7615   68.4914   31.1332 C   0  0  0  0  0  0  0  0  0  0  0  0
  110.2107   66.3777   34.2702 C   0  0  0  0  0  0  0  0  0  0  0  0
  111.1991   67.6827   37.6886 C   0  0  0  0  0  0  0  0  0  0  0  0
  110.7519   65.3712   37.1464 C   0  0  0  0  0  0  0  0  0  0  0  0
  110.4051   69.7691   33.1047 C   0  0  0  0  0  0  0  0  0  0  0  0
  110.0957   67.3316   33.2248 C   0  0  0  0  0  0  0  0  0  0  0  0
  110.8436   66.7075   36.7568 C   0  0  0  0  0  0  0  0  0  0  0  0
  111.3712   65.9855   39.3994 C   0  0  0  0  0  0  0  0  0  0  0  0
  110.0752   69.7065   31.7475 C   0  0  0  0  0  0  0  0  0  0  0  0
  110.4020   68.5609   33.7993 C   0  0  0  0  0  0  0  0  0  0  0  0
  111.4629   67.3217   39.0099 C   0  0  0  0  0  0  0  0  0  0  0  0
  111.0156   65.0102   38.4677 C   0  0  0  0  0  0  0  0  0  0  0  0
  110.5741   67.0788   35.3966 C   0  0  0  0  0  0  0  0  0  0  0  0
  110.4052   65.2884   41.5992 C   0  0  0  0  0  0  0  0  0  0  0  0
  109.3501   66.0928   41.8308 C   0  0  0  0  0  0  0  0  0  0  0  0
  108.1310   65.7180   42.6248 C   0  0  0  0  0  0  0  0  0  0  0  0
  109.3294   67.4971   41.2880 C   0  0  0  0  0  0  0  0  0  0  0  0
  111.6554   65.5980   40.8151 C   0  0  0  0  0  0  0  0  0  0  0  0
  110.0604   70.7855   31.0553 O   0  0  0  0  0  1  0  0  0  0  0  0
  110.6929   68.4040   35.1215 O   0  0  0  0  0  0  0  0  0  0  0  0
  111.8095   68.2873   39.9067 O   0  0  0  0  0  0  0  0  0  0  0  0
  110.9233   63.6997   38.8295 O   0  0  0  0  0  0  0  0  0  0  0  0
  109.5193   66.3389   31.3685 H   0  0  0  0  0  0  0  0  0  0  0  0
  109.5061   68.4758   30.0634 H   0  0  0  0  0  0  0  0  0  0  0  0
  110.0426   65.2933   34.1944 H   0  0  0  0  0  0  0  0  0  0  0  0
  111.2714   68.7365   37.3815 H   0  0  0  0  0  0  0  0  0  0  0  0
  110.4716   64.6021   36.4116 H   0  0  0  0  0  0  0  0  0  0  0  0
  110.6537   70.7205   33.5976 H   0  0  0  0  0  0  0  0  0  0  0  0
  110.3478   64.2806   42.0362 H   0  0  0  0  0  0  0  0  0  0  0  0
  108.3574   65.7876   43.6990 H   0  0  0  0  0  0  0  0  0  0  0  0
  107.3076   66.4045   42.3784 H   0  0  0  0  0  0  0  0  0  0  0  0
  107.8354   64.6875   42.3784 H   0  0  0  0  0  0  0  0  0  0  0  0
  109.3188   68.2129   42.1232 H   0  0  0  0  0  0  0  0  0  0  0  0
  110.2252   67.6654   40.6721 H   0  0  0  0  0  0  0  0  0  0  0  0
  108.4291   67.6389   40.6721 H   0  0  0  0  0  0  0  0  0  0  0  0
  112.2986   64.7057   40.8127 H   0  0  0  0  0  0  0  0  0  0  0  0
  112.1467   66.4543   41.3003 H   0  0  0  0  0  0  0  0  0  0  0  0
  111.9992   68.0440   40.8474 H   0  0  0  0  0  0  0  0  0  0  0  0
  111.1079   63.4300   39.7640 H   0  0  0  0  0  0  0  0  0  0  0  0
  1  2  2  0
  1  7  1  0
  2 10  1  0
  3  7  1  0
  3 14  2  0
  4  8  2  0
  4 12  1  0
  5  8  1  0
  5 13  2  0
  6 10  2  0
  6 11  1  0
  7 11  2  0
  8 14  1  0
  9 12  2  0
  9 13  1  0
  9 19  1  0
 10 20  1  0
 11 21  1  0
 12 22  1  0
 13 23  1  0
 14 21  1  0
 15 16  2  3
 15 19  1  0
 16 17  1  0
 16 18  1  0
  1 24  1  0
  2 25  1  0
  3 26  1  0
  4 27  1  0
  5 28  1  0
  6 29  1  0
 15 30  1  0
 17 31  1  0
 17 32  1  0
 17 33  1  0
 18 34  1  0
 18 35  1  0
 18 36  1  0
 19 37  1  0
 19 38  1  0
 22 39  1  0
 23 40  1  0
M  CHG  1  20  -1
M  END
>  <Name>  (30) 
CHEMBL2018876

>  <Comment>  (30) 
 Schrodinger Suite 2021-4.

>  <s_m_entry_id>  (30) 
1280

>  <class_value>  (30) 
0

>  <s_m_Source_Path>  (30) 
C:\Users\vinicius\Desktop

>  <s_m_Source_File>  (30) 
Ligands_Saureus_o.sdf

>  <i_m_Source_File_Index>  (30) 
165

>  <r_lp_tautomer_probability>  (30) 
0.999999999898

>  <r_epik_Ionization_Penalty>  (30) 
2.4213

>  <r_epik_State_Penalty>  (30) 
2.5773

>  <i_epik_Tot_Q>  (30) 
-1

>  <i_f3d_flags>  (30) 
0

>  <s_m_job_name>  (30) 
Saureus_o

>  <FRED Chemgauss4 score>  (30) 
-12.459614

>  <Set>  (30) 
training

>  <HBA count>  (30) 
4

>  <HBD count>  (30) 
2

>  <ExactMolWt>  (30) 
309.11323260391043

>  <NumRotatableBounds>  (30) 
7

>  <FractionCsp3>  (30) 
0.15789473684210525

>  <TPSA>  (30) 
76.66000000000001

>  <LogP_WildmanCrippen>  (30) 
4.093300000000004

>  <General_Cluster>  (30) 
4

>  <Biological_Cluster>  (30) 
2

>  <Physicochemical_Cluster>  (30) 
1

>  <Structural_Cluster>  (30) 
1

$$$$
CHEMBL72947
     RDKit          3D

 63 67  0  0  0  0  0  0  0  0999 V2000
  107.7394   62.5591   44.1815 C   0  0  0  0  0  0  0  0  0  0  0  0
  106.8700   63.6241   44.4074 C   0  0  0  0  0  0  0  0  0  0  0  0
  108.7391   62.6450   43.2060 C   0  0  0  0  0  0  0  0  0  0  0  0
  111.8192   68.1329   37.7510 C   0  0  0  0  0  0  0  0  0  0  0  0
  110.1504   67.2401   36.2493 C   0  0  0  0  0  0  0  0  0  0  0  0
  111.6572   69.3954   37.1805 C   0  0  0  0  0  0  0  0  0  0  0  0
  109.9883   68.5026   35.6788 C   0  0  0  0  0  0  0  0  0  0  0  0
  107.0813   68.5674   43.7905 C   0  0  0  0  0  0  0  0  0  0  0  0
  109.3734   68.4467   43.0363 C   0  0  0  0  0  0  0  0  0  0  0  0
  106.9708   64.8059   43.6680 C   0  0  0  0  0  0  0  0  0  0  0  0
  107.4689   69.4076   44.8342 C   0  0  0  0  0  0  0  0  0  0  0  0
  109.7610   69.2870   44.0800 C   0  0  0  0  0  0  0  0  0  0  0  0
  108.8620   63.8265   42.4475 C   0  0  0  0  0  0  0  0  0  0  0  0
  111.0658   67.0552   37.2853 C   0  0  0  0  0  0  0  0  0  0  0  0
  109.7298   64.2560   41.4069 C   0  0  0  0  0  0  0  0  0  0  0  0
  110.7417   69.5803   36.1444 C   0  0  0  0  0  0  0  0  0  0  0  0
  108.0336   68.0868   42.8916 C   0  0  0  0  0  0  0  0  0  0  0  0
  107.9743   64.8797   42.6953 C   0  0  0  0  0  0  0  0  0  0  0  0
  108.8087   69.7675   44.9790 C   0  0  0  0  0  0  0  0  0  0  0  0
  109.3533   65.5335   41.0498 C   0  0  0  0  0  0  0  0  0  0  0  0
  111.2355   65.7236   37.8865 C   0  0  0  0  0  0  0  0  0  0  0  0
  110.8571   63.5636   40.7257 C   0  0  0  0  0  0  0  0  0  0  0  0
  109.9820   66.3860   40.0074 C   0  0  0  0  0  0  0  0  0  0  0  0
  111.7617   64.5970   40.0326 C   0  0  0  0  0  0  0  0  0  0  0  0
  112.3315   72.7829   32.6034 C   0  0  0  0  0  0  0  0  0  0  0  0
  110.5680   70.9307   35.5354 C   0  0  0  0  0  0  0  0  0  0  0  0
  107.6155   67.1808   41.7652 C   0  0  0  0  0  0  0  0  0  0  0  0
  111.3620   72.5550   33.7521 C   0  0  0  0  0  0  0  0  0  0  0  0
  111.5168   71.1553   34.3468 C   0  0  0  0  0  0  0  0  0  0  0  0
  108.2977   65.9055   41.8319 N   0  0  0  0  0  0  0  0  0  0  0  0
  110.9749   65.5778   39.2542 N   0  0  0  0  0  0  0  0  0  0  0  0
  111.6059   64.8267   37.1304 O   0  0  0  0  0  0  0  0  0  0  0  0
  109.1865   70.5885   45.9967 O   0  0  0  0  0  0  0  0  0  0  0  0
  107.6388   61.6397   44.7770 H   0  0  0  0  0  0  0  0  0  0  0  0
  106.0921   63.5334   45.1798 H   0  0  0  0  0  0  0  0  0  0  0  0
  109.4215   61.7997   43.0331 H   0  0  0  0  0  0  0  0  0  0  0  0
  112.5410   67.9871   38.5681 H   0  0  0  0  0  0  0  0  0  0  0  0
  109.5563   66.3903   35.8821 H   0  0  0  0  0  0  0  0  0  0  0  0
  112.2514   70.2452   37.5476 H   0  0  0  0  0  0  0  0  0  0  0  0
  109.2664   68.6484   34.8618 H   0  0  0  0  0  0  0  0  0  0  0  0
  106.0247   68.2838   43.6762 H   0  0  0  0  0  0  0  0  0  0  0  0
  110.1243   68.0679   42.3274 H   0  0  0  0  0  0  0  0  0  0  0  0
  106.2856   65.6482   43.8444 H   0  0  0  0  0  0  0  0  0  0  0  0
  106.7180   69.7864   45.5431 H   0  0  0  0  0  0  0  0  0  0  0  0
  110.8176   69.5708   44.1942 H   0  0  0  0  0  0  0  0  0  0  0  0
  111.4445   63.0043   41.4688 H   0  0  0  0  0  0  0  0  0  0  0  0
  110.4550   62.8701   39.9725 H   0  0  0  0  0  0  0  0  0  0  0  0
  109.2087   66.7559   39.3180 H   0  0  0  0  0  0  0  0  0  0  0  0
  110.4836   67.2426   40.4813 H   0  0  0  0  0  0  0  0  0  0  0  0
  112.3424   65.1327   40.7980 H   0  0  0  0  0  0  0  0  0  0  0  0
  112.4251   64.0609   39.3380 H   0  0  0  0  0  0  0  0  0  0  0  0
  113.3281   73.0172   33.0057 H   0  0  0  0  0  0  0  0  0  0  0  0
  112.3894   71.8739   31.9867 H   0  0  0  0  0  0  0  0  0  0  0  0
  111.9784   73.6225   31.9867 H   0  0  0  0  0  0  0  0  0  0  0  0
  109.5302   71.0308   35.1847 H   0  0  0  0  0  0  0  0  0  0  0  0
  110.8038   71.6817   36.3037 H   0  0  0  0  0  0  0  0  0  0  0  0
  106.5306   67.0100   41.8272 H   0  0  0  0  0  0  0  0  0  0  0  0
  107.8806   67.6659   40.8142 H   0  0  0  0  0  0  0  0  0  0  0  0
  111.5566   73.3004   34.5372 H   0  0  0  0  0  0  0  0  0  0  0  0
  110.3376   72.6535   33.3637 H   0  0  0  0  0  0  0  0  0  0  0  0
  112.5539   71.0273   34.6902 H   0  0  0  0  0  0  0  0  0  0  0  0
  111.2651   70.4227   33.5658 H   0  0  0  0  0  0  0  0  0  0  0  0
  110.1374   70.8440   46.0996 H   0  0  0  0  0  0  0  0  0  0  0  0
  1  2  2  0
  1  3  1  0
  2 10  1  0
  3 13  2  0
  4  6  2  0
  4 14  1  0
  5  7  1  0
  5 14  2  0
  6 16  1  0
  7 16  2  0
  8 11  2  0
  8 17  1  0
  9 12  1  0
  9 17  2  0
 10 18  2  0
 11 19  1  0
 12 19  2  0
 13 15  1  0
 13 18  1  0
 14 21  1  0
 15 20  2  0
 15 22  1  0
 16 26  1  0
 17 27  1  0
 18 30  1  0
 19 33  1  0
 20 23  1  0
 20 30  1  0
 21 31  1  0
 21 32  2  0
 22 24  1  0
 23 31  1  0
 24 31  1  0
 25 28  1  0
 26 29  1  0
 27 30  1  0
 28 29  1  0
  1 34  1  0
  2 35  1  0
  3 36  1  0
  4 37  1  0
  5 38  1  0
  6 39  1  0
  7 40  1  0
  8 41  1  0
  9 42  1  0
 10 43  1  0
 11 44  1  0
 12 45  1  0
 22 46  1  0
 22 47  1  0
 23 48  1  0
 23 49  1  0
 24 50  1  0
 24 51  1  0
 25 52  1  0
 25 53  1  0
 25 54  1  0
 26 55  1  0
 26 56  1  0
 27 57  1  0
 27 58  1  0
 28 59  1  0
 28 60  1  0
 29 61  1  0
 29 62  1  0
 33 63  1  0
M  END
>  <Name>  (31) 
CHEMBL72947

>  <Comment>  (31) 
 Schrodinger Suite 2021-4.

>  <s_m_entry_id>  (31) 
1174

>  <class_value>  (31) 
1

>  <s_m_Source_Path>  (31) 
C:\Users\vinicius\Desktop

>  <s_m_Source_File>  (31) 
Ligands_Saureus_o.sdf

>  <i_m_Source_File_Index>  (31) 
80

>  <r_lp_tautomer_probability>  (31) 
0.999999999997365

>  <r_epik_Ionization_Penalty>  (31) 
0.0009

>  <r_epik_State_Penalty>  (31) 
0.0006

>  <i_epik_Tot_Q>  (31) 
0

>  <i_f3d_flags>  (31) 
0

>  <s_m_job_name>  (31) 
Saureus_o

>  <FRED Chemgauss4 score>  (31) 
-12.193564

>  <Set>  (31) 
training

>  <HBA count>  (31) 
3

>  <HBD count>  (31) 
1

>  <ExactMolWt>  (31) 
438.23072820000084

>  <NumRotatableBounds>  (31) 
8

>  <FractionCsp3>  (31) 
0.27586206896551724

>  <TPSA>  (31) 
45.47

>  <LogP_WildmanCrippen>  (31) 
5.936300000000006

>  <General_Cluster>  (31) 
3

>  <Biological_Cluster>  (31) 
1

>  <Physicochemical_Cluster>  (31) 
1

>  <Structural_Cluster>  (31) 
4

$$$$
CHEMBL566665
     RDKit          3D

 65 69  0  0  0  0  0  0  0  0999 V2000
  111.4414   73.0310   33.2616 C   0  0  0  0  0  0  0  0  0  0  0  0
  111.8461   73.0298   34.5888 C   0  0  0  0  0  0  0  0  0  0  0  0
  110.9361   71.8667   32.6770 C   0  0  0  0  0  0  0  0  0  0  0  0
  111.7552   71.8690   35.3593 C   0  0  0  0  0  0  0  0  0  0  0  0
  110.4526   67.1056   39.1516 C   0  0  0  0  0  0  0  0  0  0  0  0
  112.4313   66.1251   40.0255 C   0  0  0  0  0  0  0  0  0  0  0  0
  110.8313   70.6732   33.4316 C   0  0  0  0  0  0  0  0  0  0  0  0
  111.6497   66.4370   38.9272 C   0  0  0  0  0  0  0  0  0  0  0  0
  110.0674   67.4220   40.4549 C   0  0  0  0  0  0  0  0  0  0  0  0
  110.3524   69.3723   33.0593 C   0  0  0  0  0  0  0  0  0  0  0  0
  111.2453   70.6970   34.7670 C   0  0  0  0  0  0  0  0  0  0  0  0
  110.4122   68.4650   34.0902 C   0  0  0  0  0  0  0  0  0  0  0  0
  110.9190   67.0609   41.4947 C   0  0  0  0  0  0  0  0  0  0  0  0
  109.3415   67.9323   43.1866 C   0  0  0  0  0  0  0  0  0  0  0  0
  112.0732   66.0883   37.5835 C   0  0  0  0  0  0  0  0  0  0  0  0
  111.2608   66.0018   36.5036 C   0  0  0  0  0  0  0  0  0  0  0  0
  111.8133   65.6003   35.1763 C   0  0  0  0  0  0  0  0  0  0  0  0
  108.8282   68.2168   40.7409 C   0  0  0  0  0  0  0  0  0  0  0  0
  107.6094   66.4547   42.0999 C   0  0  0  0  0  0  0  0  0  0  0  0
  107.1159   68.9229   42.4250 C   0  0  0  0  0  0  0  0  0  0  0  0
  106.7244   66.1503   43.3018 C   0  0  0  0  0  0  0  0  0  0  0  0
  106.1881   68.5701   43.5829 C   0  0  0  0  0  0  0  0  0  0  0  0
  108.2191   67.8792   42.1242 C   0  0  0  0  0  0  0  0  0  0  0  0
  109.8451   69.0394   31.7031 C   0  0  0  0  0  0  0  0  0  0  0  0
  111.6272   65.7586   32.7234 C   0  0  0  0  0  0  0  0  0  0  0  0
  104.6261   66.8384   44.4527 C   0  0  0  0  0  0  0  0  0  0  0  0
  110.0080   67.0191   34.0963 C   0  0  0  0  0  0  0  0  0  0  0  0
  112.0997   66.4273   41.3006 N   0  0  0  0  0  0  0  0  0  0  0  0
  110.5613   67.3996   42.8112 N   0  0  0  0  0  0  0  0  0  0  0  0
  111.1655   66.1273   34.0555 N   0  0  0  0  0  0  0  0  0  0  0  0
  105.6350   67.1847   43.3921 N   0  0  0  0  0  4  0  0  0  0  0  0
  109.1522   68.3457   44.3314 O   0  0  0  0  0  0  0  0  0  0  0  0
  112.7705   64.8270   35.1206 O   0  0  0  0  0  0  0  0  0  0  0  0
  111.0412   69.1570   35.5153 S   0  0  0  0  0  0  0  0  0  0  0  0
  111.5187   73.9530   32.6667 H   0  0  0  0  0  0  0  0  0  0  0  0
  112.2424   73.9523   35.0383 H   0  0  0  0  0  0  0  0  0  0  0  0
  110.6178   71.8774   31.6241 H   0  0  0  0  0  0  0  0  0  0  0  0
  112.0764   71.8696   36.4114 H   0  0  0  0  0  0  0  0  0  0  0  0
  109.8099   67.3849   38.3037 H   0  0  0  0  0  0  0  0  0  0  0  0
  113.3811   65.5987   39.8502 H   0  0  0  0  0  0  0  0  0  0  0  0
  113.1417   65.8770   37.4297 H   0  0  0  0  0  0  0  0  0  0  0  0
  110.1892   66.2284   36.6049 H   0  0  0  0  0  0  0  0  0  0  0  0
  109.0812   69.2870   40.7176 H   0  0  0  0  0  0  0  0  0  0  0  0
  108.0816   67.9635   39.9738 H   0  0  0  0  0  0  0  0  0  0  0  0
  108.4319   65.7246   42.0797 H   0  0  0  0  0  0  0  0  0  0  0  0
  106.9722   66.3914   41.2055 H   0  0  0  0  0  0  0  0  0  0  0  0
  106.5017   69.0396   41.5199 H   0  0  0  0  0  0  0  0  0  0  0  0
  107.6391   69.8438   42.7221 H   0  0  0  0  0  0  0  0  0  0  0  0
  106.2753   65.1530   43.1843 H   0  0  0  0  0  0  0  0  0  0  0  0
  107.3298   66.1717   44.2200 H   0  0  0  0  0  0  0  0  0  0  0  0
  106.7512   68.6112   44.5270 H   0  0  0  0  0  0  0  0  0  0  0  0
  105.3574   69.2905   43.6137 H   0  0  0  0  0  0  0  0  0  0  0  0
  108.9284   68.4379   31.7920 H   0  0  0  0  0  0  0  0  0  0  0  0
  109.6229   69.9678   31.1566 H   0  0  0  0  0  0  0  0  0  0  0  0
  110.6084   68.4660   31.1566 H   0  0  0  0  0  0  0  0  0  0  0  0
  112.4842   65.0743   32.8087 H   0  0  0  0  0  0  0  0  0  0  0  0
  110.8125   65.2598   32.1780 H   0  0  0  0  0  0  0  0  0  0  0  0
  111.9334   66.6634   32.1780 H   0  0  0  0  0  0  0  0  0  0  0  0
  105.0718   66.9914   45.4467 H   0  0  0  0  0  0  0  0  0  0  0  0
  103.7428   67.4848   44.3435 H   0  0  0  0  0  0  0  0  0  0  0  0
  104.3259   65.7858   44.3435 H   0  0  0  0  0  0  0  0  0  0  0  0
  109.4341   66.8145   35.0121 H   0  0  0  0  0  0  0  0  0  0  0  0
  109.4024   66.8316   33.1973 H   0  0  0  0  0  0  0  0  0  0  0  0
  111.2595   67.2391   43.5512 H   0  0  0  0  0  0  0  0  0  0  0  0
  105.1419   67.1804   42.4878 H   0  0  0  0  0  0  0  0  0  0  0  0
  1  2  2  0
  1  3  1  0
  2  4  1  0
  3  7  2  0
  4 11  2  0
  5  8  2  0
  5  9  1  0
  6  8  1  0
  6 28  2  0
  7 10  1  0
  7 11  1  0
  8 15  1  0
  9 13  2  0
  9 18  1  0
 10 12  2  0
 10 24  1  0
 11 34  1  0
 12 27  1  0
 12 34  1  0
 13 28  1  0
 13 29  1  0
 14 23  1  0
 14 29  1  0
 14 32  2  0
 15 16  2  0
 16 17  1  0
 17 30  1  0
 17 33  2  0
 18 23  1  0
 19 21  1  0
 19 23  1  0
 20 22  1  0
 20 23  1  0
 21 31  1  0
 22 31  1  0
 25 30  1  0
 26 31  1  0
 27 30  1  0
  1 35  1  0
  2 36  1  0
  3 37  1  0
  4 38  1  0
  5 39  1  0
  6 40  1  0
 15 41  1  0
 16 42  1  0
 18 43  1  0
 18 44  1  0
 19 45  1  0
 19 46  1  0
 20 47  1  0
 20 48  1  0
 21 49  1  0
 21 50  1  0
 22 51  1  0
 22 52  1  0
 24 53  1  0
 24 54  1  0
 24 55  1  0
 25 56  1  0
 25 57  1  0
 25 58  1  0
 26 59  1  0
 26 60  1  0
 26 61  1  0
 27 62  1  0
 27 63  1  0
 29 64  1  0
 31 65  1  0
M  CHG  1  31   1
M  END
>  <Name>  (32) 
CHEMBL566665

>  <Comment>  (32) 
 Schrodinger Suite 2021-4.

>  <s_m_entry_id>  (32) 
1083

>  <class_value>  (32) 
1

>  <s_m_Source_Path>  (32) 
C:\Users\vinicius\Desktop

>  <s_m_Source_File>  (32) 
Ligands_Saureus_o.sdf

>  <i_m_Source_File_Index>  (32) 
9

>  <r_epik_Ionization_Penalty>  (32) 
0.0062

>  <r_epik_State_Penalty>  (32) 
0.0045

>  <i_epik_Tot_Q>  (32) 
1

>  <i_f3d_flags>  (32) 
0

>  <s_m_job_name>  (32) 
Saureus_o

>  <FRED Chemgauss4 score>  (32) 
-19.238857

>  <Set>  (32) 
training

>  <HBA count>  (32) 
4

>  <HBD count>  (32) 
2

>  <ExactMolWt>  (32) 
475.2162236520909

>  <NumRotatableBounds>  (32) 
7

>  <FractionCsp3>  (32) 
0.37037037037037035

>  <TPSA>  (32) 
66.74000000000001

>  <LogP_WildmanCrippen>  (32) 
3.066020000000001

>  <General_Cluster>  (32) 
1

>  <Biological_Cluster>  (32) 
1

>  <Physicochemical_Cluster>  (32) 
4

>  <Structural_Cluster>  (32) 
2

$$$$
CHEMBL3623391
     RDKit          3D

 39 41  0  0  0  0  0  0  0  0999 V2000
  110.1934   68.9876   31.9467 C   0  0  0  0  0  0  0  0  0  0  0  0
  110.6534   69.7151   33.0443 C   0  0  0  0  0  0  0  0  0  0  0  0
  109.8442   67.6454   32.0962 C   0  0  0  0  0  0  0  0  0  0  0  0
  110.7643   69.1004   34.2914 C   0  0  0  0  0  0  0  0  0  0  0  0
  109.9552   67.0308   33.3434 C   0  0  0  0  0  0  0  0  0  0  0  0
  109.5839   66.8296   42.9126 C   0  0  0  0  0  0  0  0  0  0  0  0
  108.5301   67.2101   43.7434 C   0  0  0  0  0  0  0  0  0  0  0  0
  107.6687   64.9536   43.6843 C   0  0  0  0  0  0  0  0  0  0  0  0
  108.7226   64.5731   42.8535 C   0  0  0  0  0  0  0  0  0  0  0  0
  110.4152   67.7582   34.4411 C   0  0  0  0  0  0  0  0  0  0  0  0
  109.6802   65.5110   42.4676 C   0  0  0  0  0  0  0  0  0  0  0  0
  107.5725   66.2721   44.1293 C   0  0  0  0  0  0  0  0  0  0  0  0
  111.9718   66.2193   38.2453 C   0  0  0  0  0  0  0  0  0  0  0  0
  109.9595   66.7566   40.0727 C   0  0  0  0  0  0  0  0  0  0  0  0
  110.8252   65.8092   40.4498 C   0  0  0  0  0  0  0  0  0  0  0  0
  111.0345   67.1462   37.9972 C   0  0  0  0  0  0  0  0  0  0  0  0
  111.9283   65.4702   39.5217 C   0  0  0  0  0  0  0  0  0  0  0  0
  108.8089   63.1581   42.3849 C   0  0  0  0  0  0  0  0  0  0  0  0
  111.0014   67.9504   36.7378 C   0  0  0  0  0  0  0  0  0  0  0  0
  112.7647   64.6157   39.7890 O   0  0  0  0  0  0  0  0  0  0  0  0
  110.0120   67.4454   38.8849 O   0  0  0  0  0  0  0  0  0  0  0  0
  110.7201   65.1543   41.6530 O   0  0  0  0  0  0  0  0  0  0  0  0
  110.5258   67.1525   35.6676 O   0  0  0  0  0  0  0  0  0  0  0  0
  106.2722   66.7410   45.1541 Cl  0  0  0  0  0  0  0  0  0  0  0  0
  110.1060   69.4723   30.9631 H   0  0  0  0  0  0  0  0  0  0  0  0
  110.9287   70.7735   32.9264 H   0  0  0  0  0  0  0  0  0  0  0  0
  109.4813   67.0717   31.2306 H   0  0  0  0  0  0  0  0  0  0  0  0
  111.1271   69.6741   35.1570 H   0  0  0  0  0  0  0  0  0  0  0  0
  109.6799   65.9723   33.4613 H   0  0  0  0  0  0  0  0  0  0  0  0
  110.3390   67.5693   42.6083 H   0  0  0  0  0  0  0  0  0  0  0  0
  108.4542   68.2499   44.0943 H   0  0  0  0  0  0  0  0  0  0  0  0
  106.9135   64.2139   43.9885 H   0  0  0  0  0  0  0  0  0  0  0  0
  112.7637   66.0180   37.5089 H   0  0  0  0  0  0  0  0  0  0  0  0
  109.1427   67.0033   40.7669 H   0  0  0  0  0  0  0  0  0  0  0  0
  108.8499   62.4857   43.2545 H   0  0  0  0  0  0  0  0  0  0  0  0
  107.9237   62.9184   41.7775 H   0  0  0  0  0  0  0  0  0  0  0  0
  109.7167   63.0277   41.7775 H   0  0  0  0  0  0  0  0  0  0  0  0
  110.3333   68.8136   36.8739 H   0  0  0  0  0  0  0  0  0  0  0  0
  112.0181   68.2997   36.5047 H   0  0  0  0  0  0  0  0  0  0  0  0
  1  2  2  0
  1  3  1  0
  2  4  1  0
  3  5  2  0
  4 10  2  0
  5 10  1  0
  6  7  2  0
  6 11  1  0
  7 12  1  0
  8  9  1  0
  8 12  2  0
  9 11  2  0
  9 18  1  0
 10 23  1  0
 11 22  1  0
 12 24  1  0
 13 16  2  0
 13 17  1  0
 14 15  2  0
 14 21  1  0
 15 17  1  0
 15 22  1  0
 16 19  1  0
 16 21  1  0
 17 20  2  0
 19 23  1  0
  1 25  1  0
  2 26  1  0
  3 27  1  0
  4 28  1  0
  5 29  1  0
  6 30  1  0
  7 31  1  0
  8 32  1  0
 13 33  1  0
 14 34  1  0
 18 35  1  0
 18 36  1  0
 18 37  1  0
 19 38  1  0
 19 39  1  0
M  END
>  <Name>  (33) 
CHEMBL3623391

>  <Comment>  (33) 
 Schrodinger Suite 2021-4.

>  <s_m_entry_id>  (33) 
1168

>  <class_value>  (33) 
1

>  <s_m_Source_Path>  (33) 
C:\Users\vinicius\Desktop

>  <s_m_Source_File>  (33) 
Ligands_Saureus_o.sdf

>  <i_m_Source_File_Index>  (33) 
74

>  <r_lp_tautomer_probability>  (33) 
1

>  <r_epik_Ionization_Penalty>  (33) 
0

>  <r_epik_State_Penalty>  (33) 
0

>  <i_epik_Tot_Q>  (33) 
0

>  <i_f3d_flags>  (33) 
0

>  <s_m_job_name>  (33) 
Saureus_o

>  <FRED Chemgauss4 score>  (33) 
-11.634912

>  <Set>  (33) 
training

>  <HBA count>  (33) 
4

>  <HBD count>  (33) 
0

>  <ExactMolWt>  (33) 
342.0658866400004

>  <NumRotatableBounds>  (33) 
6

>  <FractionCsp3>  (33) 
0.10526315789473684

>  <TPSA>  (33) 
48.67

>  <LogP_WildmanCrippen>  (33) 
4.972920000000002

>  <General_Cluster>  (33) 
4

>  <Biological_Cluster>  (33) 
1

>  <Physicochemical_Cluster>  (33) 
3

>  <Structural_Cluster>  (33) 
1

$$$$
CHEMBL567711
     RDKit          3D

 65 69  0  0  0  0  0  0  0  0999 V2000
  111.6766   72.7794   34.5928 C   0  0  0  0  0  0  0  0  0  0  0  0
  112.0078   72.2817   35.8557 C   0  0  0  0  0  0  0  0  0  0  0  0
  111.0313   71.9737   33.6446 C   0  0  0  0  0  0  0  0  0  0  0  0
  111.7080   70.9651   36.2178 C   0  0  0  0  0  0  0  0  0  0  0  0
  110.3264   66.8325   39.2002 C   0  0  0  0  0  0  0  0  0  0  0  0
  112.2799   65.6753   39.8965 C   0  0  0  0  0  0  0  0  0  0  0  0
  110.7200   70.6463   33.9875 C   0  0  0  0  0  0  0  0  0  0  0  0
  111.4621   66.1051   38.8665 C   0  0  0  0  0  0  0  0  0  0  0  0
  110.0348   67.0893   40.5404 C   0  0  0  0  0  0  0  0  0  0  0  0
  110.0946   69.5492   33.3385 C   0  0  0  0  0  0  0  0  0  0  0  0
  111.0664   70.1885   35.2547 C   0  0  0  0  0  0  0  0  0  0  0  0
  110.1008   68.5103   34.2402 C   0  0  0  0  0  0  0  0  0  0  0  0
  110.9159   66.6097   41.5051 C   0  0  0  0  0  0  0  0  0  0  0  0
  109.4948   67.4700   43.3355 C   0  0  0  0  0  0  0  0  0  0  0  0
  111.7875   65.8163   37.4819 C   0  0  0  0  0  0  0  0  0  0  0  0
  110.9135   65.8502   36.4482 C   0  0  0  0  0  0  0  0  0  0  0  0
  111.3646   65.4995   35.0691 C   0  0  0  0  0  0  0  0  0  0  0  0
  108.8689   67.9412   40.9455 C   0  0  0  0  0  0  0  0  0  0  0  0
  107.6112   66.1770   42.2657 C   0  0  0  0  0  0  0  0  0  0  0  0
  107.3021   68.6459   42.7662 C   0  0  0  0  0  0  0  0  0  0  0  0
  106.7747   65.8535   43.4970 C   0  0  0  0  0  0  0  0  0  0  0  0
  106.4174   68.2796   43.9533 C   0  0  0  0  0  0  0  0  0  0  0  0
  108.3150   67.5557   42.3395 C   0  0  0  0  0  0  0  0  0  0  0  0
  109.5456   69.5248   31.9692 C   0  0  0  0  0  0  0  0  0  0  0  0
  111.0560   65.8247   32.6452 C   0  0  0  0  0  0  0  0  0  0  0  0
  104.7930   66.5986   44.8080 C   0  0  0  0  0  0  0  0  0  0  0  0
  109.6019   67.0954   34.1835 C   0  0  0  0  0  0  0  0  0  0  0  0
  112.0393   65.9163   41.2046 N   0  0  0  0  0  0  0  0  0  0  0  0
  110.6540   66.8861   42.8582 N   0  0  0  0  0  0  0  0  0  0  0  0
  110.6933   66.1366   34.0217 N   0  0  0  0  0  0  0  0  0  0  0  0
  105.7634   66.9469   43.7127 N   0  0  0  0  0  4  0  0  0  0  0  0
  109.3962   67.8211   44.5121 O   0  0  0  0  0  0  0  0  0  0  0  0
  112.2636   64.6723   34.9113 O   0  0  0  0  0  0  0  0  0  0  0  0
  110.6883   68.8879   35.4056 O   0  0  0  0  0  0  0  0  0  0  0  0
  111.9263   73.8201   34.3387 H   0  0  0  0  0  0  0  0  0  0  0  0
  112.5140   72.9382   36.5787 H   0  0  0  0  0  0  0  0  0  0  0  0
  110.7736   72.3720   32.6521 H   0  0  0  0  0  0  0  0  0  0  0  0
  111.9646   70.5638   37.2093 H   0  0  0  0  0  0  0  0  0  0  0  0
  109.6585   67.2052   38.4096 H   0  0  0  0  0  0  0  0  0  0  0  0
  113.1815   65.1021   39.6347 H   0  0  0  0  0  0  0  0  0  0  0  0
  112.8295   65.5479   37.2535 H   0  0  0  0  0  0  0  0  0  0  0  0
  109.8666   66.1374   36.6255 H   0  0  0  0  0  0  0  0  0  0  0  0
  109.1912   68.9926   40.9714 H   0  0  0  0  0  0  0  0  0  0  0  0
  108.0663   67.7848   40.2097 H   0  0  0  0  0  0  0  0  0  0  0  0
  108.3808   65.3991   42.1537 H   0  0  0  0  0  0  0  0  0  0  0  0
  106.9234   66.2110   41.4079 H   0  0  0  0  0  0  0  0  0  0  0  0
  106.6486   68.8585   41.9073 H   0  0  0  0  0  0  0  0  0  0  0  0
  107.9010   69.5112   43.0866 H   0  0  0  0  0  0  0  0  0  0  0  0
  106.2543   64.8961   43.3465 H   0  0  0  0  0  0  0  0  0  0  0  0
  107.4294   65.7781   44.3778 H   0  0  0  0  0  0  0  0  0  0  0  0
  107.0327   68.2249   44.8635 H   0  0  0  0  0  0  0  0  0  0  0  0
  105.6396   69.0477   44.0757 H   0  0  0  0  0  0  0  0  0  0  0  0
  108.4476   69.4760   32.0152 H   0  0  0  0  0  0  0  0  0  0  0  0
  109.8501   70.4374   31.4358 H   0  0  0  0  0  0  0  0  0  0  0  0
  109.9298   68.6428   31.4358 H   0  0  0  0  0  0  0  0  0  0  0  0
  111.8900   65.1075   32.6393 H   0  0  0  0  0  0  0  0  0  0  0  0
  110.1903   65.3846   32.1286 H   0  0  0  0  0  0  0  0  0  0  0  0
  111.3615   66.7466   32.1286 H   0  0  0  0  0  0  0  0  0  0  0  0
  105.2672   66.7688   45.7858 H   0  0  0  0  0  0  0  0  0  0  0  0
  103.8977   67.2315   44.7196 H   0  0  0  0  0  0  0  0  0  0  0  0
  104.5045   65.5408   44.7196 H   0  0  0  0  0  0  0  0  0  0  0  0
  109.0664   66.8698   35.1175 H   0  0  0  0  0  0  0  0  0  0  0  0
  108.9370   67.0040   33.3120 H   0  0  0  0  0  0  0  0  0  0  0  0
  111.3793   66.6351   43.5452 H   0  0  0  0  0  0  0  0  0  0  0  0
  105.2225   67.0312   42.8402 H   0  0  0  0  0  0  0  0  0  0  0  0
  1  2  2  0
  1  3  1  0
  2  4  1  0
  3  7  2  0
  4 11  2  0
  5  8  2  0
  5  9  1  0
  6  8  1  0
  6 28  2  0
  7 10  1  0
  7 11  1  0
  8 15  1  0
  9 13  2  0
  9 18  1  0
 10 12  2  0
 10 24  1  0
 11 34  1  0
 12 27  1  0
 12 34  1  0
 13 28  1  0
 13 29  1  0
 14 23  1  0
 14 29  1  0
 14 32  2  0
 15 16  2  0
 16 17  1  0
 17 30  1  0
 17 33  2  0
 18 23  1  0
 19 21  1  0
 19 23  1  0
 20 22  1  0
 20 23  1  0
 21 31  1  0
 22 31  1  0
 25 30  1  0
 26 31  1  0
 27 30  1  0
  1 35  1  0
  2 36  1  0
  3 37  1  0
  4 38  1  0
  5 39  1  0
  6 40  1  0
 15 41  1  0
 16 42  1  0
 18 43  1  0
 18 44  1  0
 19 45  1  0
 19 46  1  0
 20 47  1  0
 20 48  1  0
 21 49  1  0
 21 50  1  0
 22 51  1  0
 22 52  1  0
 24 53  1  0
 24 54  1  0
 24 55  1  0
 25 56  1  0
 25 57  1  0
 25 58  1  0
 26 59  1  0
 26 60  1  0
 26 61  1  0
 27 62  1  0
 27 63  1  0
 29 64  1  0
 31 65  1  0
M  CHG  1  31   1
M  END
>  <Name>  (34) 
CHEMBL567711

>  <Comment>  (34) 
 Schrodinger Suite 2021-4.

>  <s_m_entry_id>  (34) 
1085

>  <class_value>  (34) 
1

>  <s_m_Source_Path>  (34) 
C:\Users\vinicius\Desktop

>  <s_m_Source_File>  (34) 
Ligands_Saureus_o.sdf

>  <i_m_Source_File_Index>  (34) 
11

>  <r_epik_Ionization_Penalty>  (34) 
0.0062

>  <r_epik_State_Penalty>  (34) 
0.0045

>  <i_epik_Tot_Q>  (34) 
1

>  <i_f3d_flags>  (34) 
0

>  <s_m_job_name>  (34) 
Saureus_o

>  <FRED Chemgauss4 score>  (34) 
-19.767448

>  <Set>  (34) 
training

>  <HBA count>  (34) 
4

>  <HBD count>  (34) 
2

>  <ExactMolWt>  (34) 
459.2390672720909

>  <NumRotatableBounds>  (34) 
7

>  <FractionCsp3>  (34) 
0.37037037037037035

>  <TPSA>  (34) 
79.88000000000001

>  <LogP_WildmanCrippen>  (34) 
2.5975200000000003

>  <General_Cluster>  (34) 
1

>  <Biological_Cluster>  (34) 
1

>  <Physicochemical_Cluster>  (34) 
4

>  <Structural_Cluster>  (34) 
2

$$$$
CHEMBL4205565
     RDKit          3D

 39 41  0  0  1  0  0  0  0  0999 V2000
  110.4249   66.3670   42.0397 C   0  0  0  0  0  0  0  0  0  0  0  0
  109.4874   66.7986   41.1014 C   0  0  0  0  0  0  0  0  0  0  0  0
  111.6949   65.9672   41.6237 C   0  0  0  0  0  0  0  0  0  0  0  0
  111.6560   70.9463   31.8903 C   0  0  0  0  0  0  0  0  0  0  0  0
  112.3593   71.9548   32.5488 C   0  0  0  0  0  0  0  0  0  0  0  0
  109.8198   66.8302   39.7471 C   0  0  0  0  0  0  0  0  0  0  0  0
  112.0273   65.9989   40.2694 C   0  0  0  0  0  0  0  0  0  0  0  0
  110.8772   70.0481   32.6202 C   0  0  0  0  0  0  0  0  0  0  0  0
  112.2840   72.0652   33.9373 C   0  0  0  0  0  0  0  0  0  0  0  0
  111.0898   66.4304   39.3311 C   0  0  0  0  0  0  0  0  0  0  0  0
  110.8020   70.1585   34.0086 C   0  0  0  0  0  0  0  0  0  0  0  0
  111.5054   71.1671   34.6672 C   0  0  0  0  0  0  0  0  0  0  0  0
  110.4032   67.7505   34.5278 C   0  0  0  0  0  0  0  0  0  0  0  0
  111.1623   65.1880   37.0517 C   0  0  0  0  0  0  0  0  0  0  0  0
  111.2071   65.6659   35.6091 C   0  0  0  0  0  0  0  0  0  0  0  0
  110.7051   67.5279   37.0403 C   0  0  0  0  0  0  0  0  0  0  0  0
  111.4510   66.4643   37.8620 C   0  0  1  0  0  0  0  0  0  0  0  0
  109.9554   69.1720   34.7566 C   0  0  0  0  0  0  0  0  0  0  0  0
  110.7494   67.0430   35.6650 N   0  0  0  0  0  0  0  0  0  0  0  0
  110.4502   67.2875   33.3869 O   0  0  0  0  0  0  0  0  0  0  0  0
  111.4364   71.3351   36.3837 Cl  0  0  0  0  0  0  0  0  0  0  0  0
  110.1627   66.3419   43.1077 H   0  0  0  0  0  0  0  0  0  0  0  0
  108.4860   67.1140   41.4295 H   0  0  0  0  0  0  0  0  0  0  0  0
  112.4343   65.6269   42.3637 H   0  0  0  0  0  0  0  0  0  0  0  0
  111.7154   70.8592   30.7954 H   0  0  0  0  0  0  0  0  0  0  0  0
  112.9733   72.6631   31.9732 H   0  0  0  0  0  0  0  0  0  0  0  0
  109.0804   67.1704   39.0071 H   0  0  0  0  0  0  0  0  0  0  0  0
  113.0288   65.6836   39.9414 H   0  0  0  0  0  0  0  0  0  0  0  0
  110.3224   69.2528   32.1008 H   0  0  0  0  0  0  0  0  0  0  0  0
  112.8387   72.8606   34.4567 H   0  0  0  0  0  0  0  0  0  0  0  0
  110.1714   64.7802   37.3002 H   0  0  0  0  0  0  0  0  0  0  0  0
  111.8783   64.3787   37.2574 H   0  0  0  0  0  0  0  0  0  0  0  0
  112.2324   65.6132   35.2142 H   0  0  0  0  0  0  0  0  0  0  0  0
  110.5862   65.0466   34.9450 H   0  0  0  0  0  0  0  0  0  0  0  0
  109.6643   67.6219   37.3837 H   0  0  0  0  0  0  0  0  0  0  0  0
  111.1617   68.5235   37.1420 H   0  0  0  0  0  0  0  0  0  0  0  0
  112.5294   66.6532   37.9687 H   0  0  0  0  0  0  0  0  0  0  0  0
  110.0180   69.3947   35.8320 H   0  0  0  0  0  0  0  0  0  0  0  0
  108.9229   69.2648   34.3888 H   0  0  0  0  0  0  0  0  0  0  0  0
  1  2  2  0
  1  3  1  0
  2  6  1  0
  3  7  2  0
  4  5  2  0
  4  8  1  0
  5  9  1  0
  6 10  2  0
  7 10  1  0
  8 11  2  0
  9 12  2  0
 10 17  1  0
 11 12  1  0
 11 18  1  0
 12 21  1  0
 13 18  1  0
 13 19  1  0
 13 20  2  0
 14 15  1  0
 14 17  1  0
 15 19  1  0
 16 17  1  0
 16 19  1  0
  1 22  1  0
  2 23  1  0
  3 24  1  0
  4 25  1  0
  5 26  1  0
  6 27  1  0
  7 28  1  0
  8 29  1  0
  9 30  1  0
 14 31  1  0
 14 32  1  0
 15 33  1  0
 15 34  1  0
 16 35  1  0
 16 36  1  0
 17 37  1  1
 18 38  1  0
 18 39  1  0
M  END
>  <Name>  (35) 
CHEMBL4205565

>  <Comment>  (35) 
 Schrodinger Suite 2021-4.

>  <s_m_entry_id>  (35) 
1478

>  <s_m_Source_Path>  (35) 
C:\Users\vinicius\Desktop

>  <s_m_Source_File>  (35) 
Ligands_Saureus_failomega.smi

>  <i_m_Source_File_Index>  (35) 
28

>  <r_lp_tautomer_probability>  (35) 
1

>  <r_epik_Ionization_Penalty>  (35) 
0

>  <r_epik_State_Penalty>  (35) 
0

>  <i_epik_Tot_Q>  (35) 
0

>  <i_f3d_flags>  (35) 
0

>  <s_m_job_name>  (35) 
Saureus_fail

>  <class_value>  (35) 
0

>  <FRED Chemgauss4 score>  (35) 
-13.141088

>  <Set>  (35) 
training

>  <HBA count>  (35) 
1

>  <HBD count>  (35) 
0

>  <ExactMolWt>  (35) 
299.1076918760005

>  <NumRotatableBounds>  (35) 
3

>  <FractionCsp3>  (35) 
0.2777777777777778

>  <TPSA>  (35) 
20.310000000000002

>  <LogP_WildmanCrippen>  (35) 
3.8986000000000036

>  <General_Cluster>  (35) 
2

>  <Biological_Cluster>  (35) 
2

>  <Physicochemical_Cluster>  (35) 
3

>  <Structural_Cluster>  (35) 
3

$$$$
CHEMBL3623421
     RDKit          3D

 40 42  0  0  0  0  0  0  0  0999 V2000
  110.2632   68.8988   31.9507 C   0  0  0  0  0  0  0  0  0  0  0  0
  110.2219   67.5859   32.4198 C   0  0  0  0  0  0  0  0  0  0  0  0
  110.4339   69.9545   32.8464 C   0  0  0  0  0  0  0  0  0  0  0  0
  110.3512   67.3286   33.7846 C   0  0  0  0  0  0  0  0  0  0  0  0
  110.5631   69.6971   34.2112 C   0  0  0  0  0  0  0  0  0  0  0  0
  109.5544   68.2995   43.1390 C   0  0  0  0  0  0  0  0  0  0  0  0
  108.4046   68.7068   43.8156 C   0  0  0  0  0  0  0  0  0  0  0  0
  107.5830   66.4349   43.7870 C   0  0  0  0  0  0  0  0  0  0  0  0
  108.7327   66.0276   43.1103 C   0  0  0  0  0  0  0  0  0  0  0  0
  110.5218   68.3842   34.6803 C   0  0  0  0  0  0  0  0  0  0  0  0
  109.7184   66.9599   42.7863 C   0  0  0  0  0  0  0  0  0  0  0  0
  107.4190   67.7745   44.1396 C   0  0  0  0  0  0  0  0  0  0  0  0
  111.9232   66.2734   38.4729 C   0  0  0  0  0  0  0  0  0  0  0  0
  109.7362   67.0060   40.0635 C   0  0  0  0  0  0  0  0  0  0  0  0
  110.8175   66.6154   40.7504 C   0  0  0  0  0  0  0  0  0  0  0  0
  110.7684   66.6871   37.9175 C   0  0  0  0  0  0  0  0  0  0  0  0
  112.0229   66.2099   39.9636 C   0  0  0  0  0  0  0  0  0  0  0  0
  108.8908   64.5902   42.7387 C   0  0  0  0  0  0  0  0  0  0  0  0
  110.5949   66.7767   36.4315 C   0  0  0  0  0  0  0  0  0  0  0  0
  109.6899   67.0484   38.6975 N   0  0  0  0  0  0  0  0  0  0  0  0
  113.0549   65.8391   40.5121 O   0  0  0  0  0  0  0  0  0  0  0  0
  110.8524   66.5769   42.1224 O   0  0  0  0  0  0  0  0  0  0  0  0
  110.6475   68.1315   36.0242 O   0  0  0  0  0  0  0  0  0  0  0  0
  106.0004   68.2764   44.9743 Cl  0  0  0  0  0  0  0  0  0  0  0  0
  110.1612   69.1017   30.8744 H   0  0  0  0  0  0  0  0  0  0  0  0
  110.0874   66.7534   31.7135 H   0  0  0  0  0  0  0  0  0  0  0  0
  110.4666   70.9899   32.4764 H   0  0  0  0  0  0  0  0  0  0  0  0
  110.3186   66.2932   34.1546 H   0  0  0  0  0  0  0  0  0  0  0  0
  110.6976   70.5295   34.9176 H   0  0  0  0  0  0  0  0  0  0  0  0
  110.3318   69.0347   42.8836 H   0  0  0  0  0  0  0  0  0  0  0  0
  108.2751   69.7632   44.0936 H   0  0  0  0  0  0  0  0  0  0  0  0
  106.8057   65.6997   44.0426 H   0  0  0  0  0  0  0  0  0  0  0  0
  112.7775   65.9874   37.8417 H   0  0  0  0  0  0  0  0  0  0  0  0
  108.8405   67.3078   40.6263 H   0  0  0  0  0  0  0  0  0  0  0  0
  108.9578   63.9806   43.6519 H   0  0  0  0  0  0  0  0  0  0  0  0
  108.0228   64.2673   42.1452 H   0  0  0  0  0  0  0  0  0  0  0  0
  109.8083   64.4637   42.1452 H   0  0  0  0  0  0  0  0  0  0  0  0
  111.3996   66.2145   35.9352 H   0  0  0  0  0  0  0  0  0  0  0  0
  109.6196   66.3509   36.1530 H   0  0  0  0  0  0  0  0  0  0  0  0
  108.8228   67.3598   38.2369 H   0  0  0  0  0  0  0  0  0  0  0  0
  1  2  2  0
  1  3  1  0
  2  4  1  0
  3  5  2  0
  4 10  2  0
  5 10  1  0
  6  7  2  0
  6 11  1  0
  7 12  1  0
  8  9  1  0
  8 12  2  0
  9 11  2  0
  9 18  1  0
 10 23  1  0
 11 22  1  0
 12 24  1  0
 13 16  2  0
 13 17  1  0
 14 15  2  0
 14 20  1  0
 15 17  1  0
 15 22  1  0
 16 19  1  0
 16 20  1  0
 17 21  2  0
 19 23  1  0
  1 25  1  0
  2 26  1  0
  3 27  1  0
  4 28  1  0
  5 29  1  0
  6 30  1  0
  7 31  1  0
  8 32  1  0
 13 33  1  0
 14 34  1  0
 18 35  1  0
 18 36  1  0
 18 37  1  0
 19 38  1  0
 19 39  1  0
 20 40  1  0
M  END
>  <Name>  (36) 
CHEMBL3623421

>  <Comment>  (36) 
 Schrodinger Suite 2021-4.

>  <s_m_entry_id>  (36) 
1164

>  <class_value>  (36) 
1

>  <s_m_Source_Path>  (36) 
C:\Users\vinicius\Desktop

>  <s_m_Source_File>  (36) 
Ligands_Saureus_o.sdf

>  <i_m_Source_File_Index>  (36) 
71

>  <r_lp_tautomer_probability>  (36) 
0.972255101557691

>  <r_epik_Ionization_Penalty>  (36) 
0.0013

>  <r_epik_State_Penalty>  (36) 
0.0071

>  <i_epik_Tot_Q>  (36) 
0

>  <i_f3d_flags>  (36) 
0

>  <s_m_job_name>  (36) 
Saureus_o

>  <FRED Chemgauss4 score>  (36) 
-13.218450

>  <Set>  (36) 
training

>  <HBA count>  (36) 
3

>  <HBD count>  (36) 
1

>  <ExactMolWt>  (36) 
341.0818710520004

>  <NumRotatableBounds>  (36) 
6

>  <FractionCsp3>  (36) 
0.10526315789473684

>  <TPSA>  (36) 
51.32000000000001

>  <LogP_WildmanCrippen>  (36) 
4.708020000000002

>  <General_Cluster>  (36) 
1

>  <Biological_Cluster>  (36) 
1

>  <Physicochemical_Cluster>  (36) 
1

>  <Structural_Cluster>  (36) 
5

$$$$
Ghattas_MN14
     RDKit          3D

 33 34  0  0  0  0  0  0  0  0999 V2000
  109.4856   67.5536   34.0594 C   0  0  0  0  0  0  0  0  0  0  0  0
  107.6336   68.9186   41.8519 C   0  0  0  0  0  0  0  0  0  0  0  0
  110.1451   67.1442   32.9005 C   0  0  0  0  0  0  0  0  0  0  0  0
  107.2169   68.1289   42.9235 C   0  0  0  0  0  0  0  0  0  0  0  0
  109.8161   66.9829   35.2886 C   0  0  0  0  0  0  0  0  0  0  0  0
  108.4776   68.3842   40.8783 C   0  0  0  0  0  0  0  0  0  0  0  0
  111.1349   66.1639   32.9706 C   0  0  0  0  0  0  0  0  0  0  0  0
  107.6443   66.8048   43.0216 C   0  0  0  0  0  0  0  0  0  0  0  0
  110.8060   66.0026   35.3587 C   0  0  0  0  0  0  0  0  0  0  0  0
  108.9050   67.0601   40.9765 C   0  0  0  0  0  0  0  0  0  0  0  0
  111.4654   65.5931   34.1998 C   0  0  0  0  0  0  0  0  0  0  0  0
  108.4883   66.2703   42.0481 C   0  0  0  0  0  0  0  0  0  0  0  0
  111.0988   65.4501   36.6817 C   0  0  0  0  0  0  0  0  0  0  0  0
  109.7962   66.5191   39.9350 C   0  0  0  0  0  0  0  0  0  0  0  0
  111.5524   66.1613   37.7318 C   0  0  0  0  0  0  0  0  0  0  0  0
  111.0172   66.0144   40.1649 C   0  0  0  0  0  0  0  0  0  0  0  0
  111.8246   65.4860   39.0308 C   0  0  0  0  0  0  0  0  0  0  0  0
  112.3818   64.6942   34.2327 O   0  0  0  0  0  1  0  0  0  0  0  0
  112.6372   64.5781   39.1548 O   0  0  0  0  0  0  0  0  0  0  0  0
  108.8918   64.9734   42.1691 O   0  0  0  0  0  0  0  0  0  0  0  0
  108.7049   68.3265   34.0040 H   0  0  0  0  0  0  0  0  0  0  0  0
  107.2966   69.9629   41.7746 H   0  0  0  0  0  0  0  0  0  0  0  0
  109.8846   67.5944   31.9313 H   0  0  0  0  0  0  0  0  0  0  0  0
  106.5513   68.5503   43.6912 H   0  0  0  0  0  0  0  0  0  0  0  0
  109.2961   67.3059   36.2026 H   0  0  0  0  0  0  0  0  0  0  0  0
  108.8061   69.0070   40.0332 H   0  0  0  0  0  0  0  0  0  0  0  0
  111.6548   65.8409   32.0566 H   0  0  0  0  0  0  0  0  0  0  0  0
  107.3158   66.1820   43.8667 H   0  0  0  0  0  0  0  0  0  0  0  0
  110.9361   64.3723   36.8299 H   0  0  0  0  0  0  0  0  0  0  0  0
  109.4346   66.5300   38.8962 H   0  0  0  0  0  0  0  0  0  0  0  0
  111.7221   67.2433   37.6296 H   0  0  0  0  0  0  0  0  0  0  0  0
  111.4209   65.9908   41.1879 H   0  0  0  0  0  0  0  0  0  0  0  0
  109.4908   64.5758   41.4885 H   0  0  0  0  0  0  0  0  0  0  0  0
  1  3  2  0
  1  5  1  0
  2  4  2  0
  2  6  1  0
  3  7  1  0
  4  8  1  0
  5  9  2  0
  6 10  2  0
  7 11  2  0
  8 12  2  0
  9 11  1  0
  9 13  1  0
 10 12  1  0
 10 14  1  0
 11 18  1  0
 12 20  1  0
 13 15  2  0
 14 16  2  0
 15 17  1  0
 16 17  1  0
 17 19  2  0
  1 21  1  0
  2 22  1  0
  3 23  1  0
  4 24  1  0
  5 25  1  0
  6 26  1  0
  7 27  1  0
  8 28  1  0
 13 29  1  0
 14 30  1  0
 15 31  1  0
 16 32  1  0
 20 33  1  0
M  CHG  1  18  -1
M  END
>  <Name>  (37) 
Ghattas_MN14

>  <Comment>  (37) 
 Schrodinger Suite 2021-4.

>  <s_m_entry_id>  (37) 
1072

>  <class_value>  (37) 
0

>  <s_m_Source_Path>  (37) 
C:\Users\vinicius\Desktop

>  <s_m_Source_File>  (37) 
Ligands_Saureus_o.sdf

>  <i_m_Source_File_Index>  (37) 
2

>  <r_epik_Ionization_Penalty>  (37) 
0.7421

>  <r_epik_State_Penalty>  (37) 
0.8703

>  <i_epik_Tot_Q>  (37) 
-1

>  <i_f3d_flags>  (37) 
0

>  <s_m_job_name>  (37) 
Saureus_o

>  <FRED Chemgauss4 score>  (37) 
-13.681756

>  <Set>  (37) 
training

>  <HBA count>  (37) 
3

>  <HBD count>  (37) 
1

>  <ExactMolWt>  (37) 
265.0870178559103

>  <NumRotatableBounds>  (37) 
5

>  <FractionCsp3>  (37) 
0.0

>  <TPSA>  (37) 
60.36

>  <LogP_WildmanCrippen>  (37) 
2.761500000000001

>  <General_Cluster>  (37) 
4

>  <Biological_Cluster>  (37) 
2

>  <Physicochemical_Cluster>  (37) 
3

>  <Structural_Cluster>  (37) 
1

$$$$
CHEMBL566043
     RDKit          3D

 67 71  0  0  0  0  0  0  0  0999 V2000
  111.8221   73.1719   33.9620 C   0  0  0  0  0  0  0  0  0  0  0  0
  112.2743   73.0535   35.2685 C   0  0  0  0  0  0  0  0  0  0  0  0
  111.1555   72.1088   33.3470 C   0  0  0  0  0  0  0  0  0  0  0  0
  112.0712   71.8741   35.9875 C   0  0  0  0  0  0  0  0  0  0  0  0
  110.1625   66.7438   39.6550 C   0  0  0  0  0  0  0  0  0  0  0  0
  112.3839   66.2182   40.3031 C   0  0  0  0  0  0  0  0  0  0  0  0
  110.9340   70.8995   34.0494 C   0  0  0  0  0  0  0  0  0  0  0  0
  111.4366   66.3181   39.3006 C   0  0  0  0  0  0  0  0  0  0  0  0
  109.8739   67.0543   40.9859 C   0  0  0  0  0  0  0  0  0  0  0  0
  110.2851   69.6868   33.6388 C   0  0  0  0  0  0  0  0  0  0  0  0
  111.3989   70.8042   35.3647 C   0  0  0  0  0  0  0  0  0  0  0  0
  110.2726   68.7270   34.6228 C   0  0  0  0  0  0  0  0  0  0  0  0
  110.8923   66.9221   41.9173 C   0  0  0  0  0  0  0  0  0  0  0  0
  109.4022   67.6631   43.7500 C   0  0  0  0  0  0  0  0  0  0  0  0
  111.7621   65.9905   37.9249 C   0  0  0  0  0  0  0  0  0  0  0  0
  110.9044   66.0584   36.8792 C   0  0  0  0  0  0  0  0  0  0  0  0
  111.3519   65.6620   35.5114 C   0  0  0  0  0  0  0  0  0  0  0  0
  108.5137   67.5127   41.3917 C   0  0  0  0  0  0  0  0  0  0  0  0
  104.8149   68.0034   45.3889 C   0  0  0  0  0  0  0  0  0  0  0  0
  103.8065   66.4821   43.8182 C   0  0  0  0  0  0  0  0  0  0  0  0
  103.4182   68.4629   45.7972 C   0  0  0  0  0  0  0  0  0  0  0  0
  102.4336   66.9782   44.2627 C   0  0  0  0  0  0  0  0  0  0  0  0
  109.6890   69.4879   32.2924 C   0  0  0  0  0  0  0  0  0  0  0  0
  111.0925   65.9676   33.0792 C   0  0  0  0  0  0  0  0  0  0  0  0
  109.6944   67.3421   34.5797 C   0  0  0  0  0  0  0  0  0  0  0  0
  107.0516   68.2519   43.2475 C   0  0  0  0  0  0  0  0  0  0  0  0
  106.1286   67.0923   43.5821 C   0  0  0  0  0  0  0  0  0  0  0  0
  112.1430   66.5094   41.6006 N   0  0  0  0  0  0  0  0  0  0  0  0
  110.6212   67.2292   43.2576 N   0  0  0  0  0  0  0  0  0  0  0  0
  108.3689   67.8001   42.8191 N   0  0  0  0  0  0  0  0  0  0  0  0
  104.8020   67.5490   43.9914 N   0  0  0  0  0  0  0  0  0  0  0  0
  110.7312   66.3204   34.4461 N   0  0  0  0  0  0  0  0  0  0  0  0
  109.2731   67.9068   44.9541 O   0  0  0  0  0  0  0  0  0  0  0  0
  112.2041   64.7826   35.3774 O   0  0  0  0  0  0  0  0  0  0  0  0
  102.4759   67.4036   45.6253 O   0  0  0  0  0  0  0  0  0  0  0  0
  111.0360   69.2637   36.0491 S   0  0  0  0  0  0  0  0  0  0  0  0
  111.9892   74.1072   33.4077 H   0  0  0  0  0  0  0  0  0  0  0  0
  112.7978   73.8970   35.7423 H   0  0  0  0  0  0  0  0  0  0  0  0
  110.8007   72.2121   32.3109 H   0  0  0  0  0  0  0  0  0  0  0  0
  112.4302   71.7818   37.0232 H   0  0  0  0  0  0  0  0  0  0  0  0
  109.3805   66.8364   38.8870 H   0  0  0  0  0  0  0  0  0  0  0  0
  113.3943   65.8815   40.0279 H   0  0  0  0  0  0  0  0  0  0  0  0
  112.7899   65.6599   37.7142 H   0  0  0  0  0  0  0  0  0  0  0  0
  109.8734   66.4072   37.0384 H   0  0  0  0  0  0  0  0  0  0  0  0
  108.2793   68.4299   40.8315 H   0  0  0  0  0  0  0  0  0  0  0  0
  107.8258   66.6837   41.1691 H   0  0  0  0  0  0  0  0  0  0  0  0
  105.5199   68.8412   45.4938 H   0  0  0  0  0  0  0  0  0  0  0  0
  105.1273   67.1719   46.0378 H   0  0  0  0  0  0  0  0  0  0  0  0
  104.0946   65.6118   44.4261 H   0  0  0  0  0  0  0  0  0  0  0  0
  103.7627   66.1953   42.7571 H   0  0  0  0  0  0  0  0  0  0  0  0
  103.4315   68.7683   46.8539 H   0  0  0  0  0  0  0  0  0  0  0  0
  103.1216   69.3110   45.1625 H   0  0  0  0  0  0  0  0  0  0  0  0
  102.1308   67.8241   43.6280 H   0  0  0  0  0  0  0  0  0  0  0  0
  101.7088   66.1562   44.1675 H   0  0  0  0  0  0  0  0  0  0  0  0
  108.6504   69.1414   32.3988 H   0  0  0  0  0  0  0  0  0  0  0  0
  109.7033   70.4395   31.7408 H   0  0  0  0  0  0  0  0  0  0  0  0
  110.2719   68.7356   31.7408 H   0  0  0  0  0  0  0  0  0  0  0  0
  111.8794   65.1992   33.0947 H   0  0  0  0  0  0  0  0  0  0  0  0
  110.2079   65.5761   32.5556 H   0  0  0  0  0  0  0  0  0  0  0  0
  111.4629   66.8613   32.5556 H   0  0  0  0  0  0  0  0  0  0  0  0
  109.1353   67.1614   35.5097 H   0  0  0  0  0  0  0  0  0  0  0  0
  109.0362   67.2756   33.7008 H   0  0  0  0  0  0  0  0  0  0  0  0
  106.5989   68.8428   42.4376 H   0  0  0  0  0  0  0  0  0  0  0  0
  107.1808   68.8548   44.1585 H   0  0  0  0  0  0  0  0  0  0  0  0
  106.0254   66.4526   42.6932 H   0  0  0  0  0  0  0  0  0  0  0  0
  106.5711   66.5373   44.4224 H   0  0  0  0  0  0  0  0  0  0  0  0
  111.3925   67.1233   43.9319 H   0  0  0  0  0  0  0  0  0  0  0  0
  1  2  2  0
  1  3  1  0
  2  4  1  0
  3  7  2  0
  4 11  2  0
  5  8  2  0
  5  9  1  0
  6  8  1  0
  6 28  2  0
  7 10  1  0
  7 11  1  0
  8 15  1  0
  9 13  2  0
  9 18  1  0
 10 12  2  0
 10 23  1  0
 11 36  1  0
 12 25  1  0
 12 36  1  0
 13 28  1  0
 13 29  1  0
 14 29  1  0
 14 30  1  0
 14 33  2  0
 15 16  2  0
 16 17  1  0
 17 32  1  0
 17 34  2  0
 18 30  1  0
 19 21  1  0
 19 31  1  0
 20 22  1  0
 20 31  1  0
 21 35  1  0
 22 35  1  0
 24 32  1  0
 25 32  1  0
 26 27  1  0
 26 30  1  0
 27 31  1  0
  1 37  1  0
  2 38  1  0
  3 39  1  0
  4 40  1  0
  5 41  1  0
  6 42  1  0
 15 43  1  0
 16 44  1  0
 18 45  1  0
 18 46  1  0
 19 47  1  0
 19 48  1  0
 20 49  1  0
 20 50  1  0
 21 51  1  0
 21 52  1  0
 22 53  1  0
 22 54  1  0
 23 55  1  0
 23 56  1  0
 23 57  1  0
 24 58  1  0
 24 59  1  0
 24 60  1  0
 25 61  1  0
 25 62  1  0
 26 63  1  0
 26 64  1  0
 27 65  1  0
 27 66  1  0
 29 67  1  0
M  END
>  <Name>  (38) 
CHEMBL566043

>  <Comment>  (38) 
 Schrodinger Suite 2021-4.

>  <s_m_entry_id>  (38) 
1087

>  <class_value>  (38) 
1

>  <s_m_Source_Path>  (38) 
C:\Users\vinicius\Desktop

>  <s_m_Source_File>  (38) 
Ligands_Saureus_o.sdf

>  <i_m_Source_File_Index>  (38) 
13

>  <r_epik_Ionization_Penalty>  (38) 
0.2285

>  <r_epik_State_Penalty>  (38) 
0.2191

>  <i_epik_Tot_Q>  (38) 
0

>  <i_f3d_flags>  (38) 
0

>  <s_m_job_name>  (38) 
Saureus_o

>  <FRED Chemgauss4 score>  (38) 
-18.427601

>  <Set>  (38) 
training

>  <HBA count>  (38) 
6

>  <HBD count>  (38) 
1

>  <ExactMolWt>  (38) 
505.21476085200095

>  <NumRotatableBounds>  (38) 
9

>  <FractionCsp3>  (38) 
0.37037037037037035

>  <TPSA>  (38) 
78.01

>  <LogP_WildmanCrippen>  (38) 
3.9562200000000036

>  <General_Cluster>  (38) 
1

>  <Biological_Cluster>  (38) 
1

>  <Physicochemical_Cluster>  (38) 
4

>  <Structural_Cluster>  (38) 
2

$$$$
FULL_S6
     RDKit          3D

 37 40  0  0  0  0  0  0  0  0999 V2000
  111.3605   71.7327   31.1006 C   0  0  0  0  0  0  0  0  0  0  0  0
  111.6692   72.7423   32.0096 C   0  0  0  0  0  0  0  0  0  0  0  0
  111.0527   70.4408   31.5421 C   0  0  0  0  0  0  0  0  0  0  0  0
  110.3372   66.8073   38.6217 C   0  0  0  0  0  0  0  0  0  0  0  0
  112.1932   65.2628   38.5369 C   0  0  0  0  0  0  0  0  0  0  0  0
  111.6808   72.4947   33.3852 C   0  0  0  0  0  0  0  0  0  0  0  0
  110.4485   66.8648   40.0109 C   0  0  0  0  0  0  0  0  0  0  0  0
  112.3045   65.3204   39.9262 C   0  0  0  0  0  0  0  0  0  0  0  0
  111.0568   70.1657   32.9244 C   0  0  0  0  0  0  0  0  0  0  0  0
  111.2096   66.0063   37.8847 C   0  0  0  0  0  0  0  0  0  0  0  0
  110.8025   69.0090   33.7102 C   0  0  0  0  0  0  0  0  0  0  0  0
  111.3716   71.1989   33.8144 C   0  0  0  0  0  0  0  0  0  0  0  0
  111.4321   66.1214   40.6631 C   0  0  0  0  0  0  0  0  0  0  0  0
  110.9706   69.3579   35.0336 C   0  0  0  0  0  0  0  0  0  0  0  0
  111.0918   65.9449   36.4198 C   0  0  0  0  0  0  0  0  0  0  0  0
  110.4336   67.6219   33.3175 C   0  0  0  0  0  0  0  0  0  0  0  0
  110.8021   68.4712   36.2142 C   0  0  0  0  0  0  0  0  0  0  0  0
  109.8101   66.8884   34.5175 C   0  0  0  0  0  0  0  0  0  0  0  0
  111.3097   70.6793   35.0905 N   0  0  0  0  0  0  0  0  0  0  0  0
  110.6095   67.0742   35.7476 N   0  0  0  0  0  0  0  0  0  0  0  0
  111.5346   66.1742   41.9392 O   0  0  0  0  0  1  0  0  0  0  0  0
  111.4254   64.8862   35.8894 O   0  0  0  0  0  0  0  0  0  0  0  0
  111.3587   71.9536   30.0230 H   0  0  0  0  0  0  0  0  0  0  0  0
  111.9076   73.7502   31.6389 H   0  0  0  0  0  0  0  0  0  0  0  0
  110.8102   69.6488   30.8182 H   0  0  0  0  0  0  0  0  0  0  0  0
  109.5615   67.3936   38.1073 H   0  0  0  0  0  0  0  0  0  0  0  0
  112.8811   64.6311   37.9557 H   0  0  0  0  0  0  0  0  0  0  0  0
  111.9243   73.2901   34.1050 H   0  0  0  0  0  0  0  0  0  0  0  0
  109.7606   67.4964   40.5921 H   0  0  0  0  0  0  0  0  0  0  0  0
  113.0802   64.7342   40.4406 H   0  0  0  0  0  0  0  0  0  0  0  0
  109.7063   67.6571   32.4930 H   0  0  0  0  0  0  0  0  0  0  0  0
  111.3366   67.0843   32.9927 H   0  0  0  0  0  0  0  0  0  0  0  0
  111.6990   68.5276   36.8485 H   0  0  0  0  0  0  0  0  0  0  0  0
  109.9262   68.7919   36.7972 H   0  0  0  0  0  0  0  0  0  0  0  0
  108.7969   67.2811   34.6881 H   0  0  0  0  0  0  0  0  0  0  0  0
  109.7824   65.8135   34.2857 H   0  0  0  0  0  0  0  0  0  0  0  0
  111.4917   71.2080   35.9555 H   0  0  0  0  0  0  0  0  0  0  0  0
  1  2  2  0
  1  3  1  0
  2  6  1  0
  3  9  2  0
  4  7  2  0
  4 10  1  0
  5  8  1  0
  5 10  2  0
  6 12  2  0
  7 13  1  0
  8 13  2  0
  9 11  1  0
  9 12  1  0
 10 15  1  0
 11 14  2  0
 11 16  1  0
 12 19  1  0
 13 21  1  0
 14 17  1  0
 14 19  1  0
 15 20  1  0
 15 22  2  0
 16 18  1  0
 17 20  1  0
 18 20  1  0
  1 23  1  0
  2 24  1  0
  3 25  1  0
  4 26  1  0
  5 27  1  0
  6 28  1  0
  7 29  1  0
  8 30  1  0
 16 31  1  0
 16 32  1  0
 17 33  1  0
 17 34  1  0
 18 35  1  0
 18 36  1  0
 19 37  1  0
M  CHG  1  21  -1
M  END
>  <Name>  (39) 
FULL_S6

>  <Comment>  (39) 
 Schrodinger Suite 2021-4.

>  <s_m_entry_id>  (39) 
1372

>  <class_value>  (39) 
0

>  <s_m_Source_Path>  (39) 
C:\Users\vinicius\Desktop

>  <s_m_Source_File>  (39) 
Ligands_Saureus_o.sdf

>  <i_m_Source_File_Index>  (39) 
220

>  <r_epik_Ionization_Penalty>  (39) 
2.2042

>  <r_epik_State_Penalty>  (39) 
2.3479

>  <i_epik_Tot_Q>  (39) 
-1

>  <i_f3d_flags>  (39) 
0

>  <s_m_job_name>  (39) 
Saureus_o

>  <FRED Chemgauss4 score>  (39) 
-13.684198

>  <Set>  (39) 
training

>  <HBA count>  (39) 
2

>  <HBD count>  (39) 
1

>  <ExactMolWt>  (39) 
291.11390129991037

>  <NumRotatableBounds>  (39) 
1

>  <FractionCsp3>  (39) 
0.16666666666666666

>  <TPSA>  (39) 
59.160000000000004

>  <LogP_WildmanCrippen>  (39) 
2.4400000000000004

>  <General_Cluster>  (39) 
2

>  <Biological_Cluster>  (39) 
2

>  <Physicochemical_Cluster>  (39) 
3

>  <Structural_Cluster>  (39) 
3

$$$$
CHEMBL2178303
     RDKit          3D

 30 31  0  0  0  0  0  0  0  0999 V2000
  111.6861   66.1607   40.2025 C   0  0  0  0  0  0  0  0  0  0  0  0
  112.2551   66.7469   39.0719 C   0  0  0  0  0  0  0  0  0  0  0  0
  110.8536   65.0496   40.0678 C   0  0  0  0  0  0  0  0  0  0  0  0
  111.9914   66.2222   37.8067 C   0  0  0  0  0  0  0  0  0  0  0  0
  110.5899   64.5249   38.8026 C   0  0  0  0  0  0  0  0  0  0  0  0
  111.0664   66.4430   33.2597 C   0  0  0  0  0  0  0  0  0  0  0  0
  109.4808   66.2992   35.5505 C   0  0  0  0  0  0  0  0  0  0  0  0
  109.9536   67.2737   33.3909 C   0  0  0  0  0  0  0  0  0  0  0  0
  111.1588   65.1112   37.6720 C   0  0  0  0  0  0  0  0  0  0  0  0
  111.3863   65.5403   34.2738 C   0  0  0  0  0  0  0  0  0  0  0  0
  110.5935   65.4685   35.4192 C   0  0  0  0  0  0  0  0  0  0  0  0
  109.1608   67.2019   34.5363 C   0  0  0  0  0  0  0  0  0  0  0  0
  110.5171   69.4686   32.3177 C   0  0  0  0  0  0  0  0  0  0  0  0
  109.6140   68.2379   32.3050 C   0  0  0  0  0  0  0  0  0  0  0  0
  112.4757   64.7343   34.1346 O   0  0  0  0  0  0  0  0  0  0  0  0
  110.8955   64.5910   36.4165 O   0  0  0  0  0  0  0  0  0  0  0  0
  108.0895   67.9961   34.6715 F   0  0  0  0  0  0  0  0  0  0  0  0
  111.8939   66.5746   41.2003 H   0  0  0  0  0  0  0  0  0  0  0  0
  112.9118   67.6230   39.1781 H   0  0  0  0  0  0  0  0  0  0  0  0
  110.4050   64.5872   40.9594 H   0  0  0  0  0  0  0  0  0  0  0  0
  112.4401   66.6846   36.9151 H   0  0  0  0  0  0  0  0  0  0  0  0
  109.9333   63.6488   38.6964 H   0  0  0  0  0  0  0  0  0  0  0  0
  111.6917   66.4998   32.3565 H   0  0  0  0  0  0  0  0  0  0  0  0
  108.8556   66.2425   36.4538 H   0  0  0  0  0  0  0  0  0  0  0  0
  110.7289   69.7572   33.3578 H   0  0  0  0  0  0  0  0  0  0  0  0
  111.4607   69.2363   31.8022 H   0  0  0  0  0  0  0  0  0  0  0  0
  110.0125   70.2990   31.8022 H   0  0  0  0  0  0  0  0  0  0  0  0
  109.7219   67.7303   31.3351 H   0  0  0  0  0  0  0  0  0  0  0  0
  108.5807   68.5778   32.4686 H   0  0  0  0  0  0  0  0  0  0  0  0
  112.7099   64.0908   34.8495 H   0  0  0  0  0  0  0  0  0  0  0  0
  1  2  2  0
  1  3  1  0
  2  4  1  0
  3  5  2  0
  4  9  2  0
  5  9  1  0
  6  8  2  0
  6 10  1  0
  7 11  1  0
  7 12  2  0
  8 12  1  0
  8 14  1  0
  9 16  1  0
 10 11  2  0
 10 15  1  0
 11 16  1  0
 12 17  1  0
 13 14  1  0
  1 18  1  0
  2 19  1  0
  3 20  1  0
  4 21  1  0
  5 22  1  0
  6 23  1  0
  7 24  1  0
 13 25  1  0
 13 26  1  0
 13 27  1  0
 14 28  1  0
 14 29  1  0
 15 30  1  0
M  END
>  <Name>  (40) 
CHEMBL2178303

>  <Comment>  (40) 
 Schrodinger Suite 2021-4.

>  <s_m_entry_id>  (40) 
1095

>  <class_value>  (40) 
1

>  <s_m_Source_Path>  (40) 
C:\Users\vinicius\Desktop

>  <s_m_Source_File>  (40) 
Ligands_Saureus_o.sdf

>  <i_m_Source_File_Index>  (40) 
18

>  <r_lp_tautomer_probability>  (40) 
0.999999999999776

>  <r_epik_Ionization_Penalty>  (40) 
0.002

>  <r_epik_State_Penalty>  (40) 
0.0014

>  <i_epik_Tot_Q>  (40) 
0

>  <i_f3d_flags>  (40) 
0

>  <s_m_job_name>  (40) 
Saureus_o

>  <FRED Chemgauss4 score>  (40) 
-12.517917

>  <Set>  (40) 
training

>  <HBA count>  (40) 
2

>  <HBD count>  (40) 
1

>  <ExactMolWt>  (40) 
232.089957876

>  <NumRotatableBounds>  (40) 
5

>  <FractionCsp3>  (40) 
0.14285714285714285

>  <TPSA>  (40) 
29.46

>  <LogP_WildmanCrippen>  (40) 
3.8860000000000015

>  <General_Cluster>  (40) 
4

>  <Biological_Cluster>  (40) 
1

>  <Physicochemical_Cluster>  (40) 
3

>  <Structural_Cluster>  (40) 
1

$$$$
CHEMBL4213757
     RDKit          3D

 51 53  0  0  1  0  0  0  0  0999 V2000
  111.8186   72.1732   32.3875 C   0  0  0  0  0  0  0  0  0  0  0  0
  111.9491   72.9929   33.5085 C   0  0  0  0  0  0  0  0  0  0  0  0
  111.4662   66.5173   40.2731 C   0  0  0  0  0  0  0  0  0  0  0  0
  109.1546   67.2126   40.1721 C   0  0  0  0  0  0  0  0  0  0  0  0
  111.4060   70.8490   32.5360 C   0  0  0  0  0  0  0  0  0  0  0  0
  111.5166   66.8800   41.6189 C   0  0  0  0  0  0  0  0  0  0  0  0
  109.2050   67.5753   41.5181 C   0  0  0  0  0  0  0  0  0  0  0  0
  111.6671   72.4885   34.7780 C   0  0  0  0  0  0  0  0  0  0  0  0
  110.2852   66.6836   39.5496 C   0  0  0  0  0  0  0  0  0  0  0  0
  111.1240   70.3446   33.8055 C   0  0  0  0  0  0  0  0  0  0  0  0
  110.3859   67.4090   42.2415 C   0  0  0  0  0  0  0  0  0  0  0  0
  111.2545   71.1643   34.9266 C   0  0  0  0  0  0  0  0  0  0  0  0
  110.2309   66.2999   38.1282 C   0  0  0  0  0  0  0  0  0  0  0  0
  111.2982   66.1478   37.3301 C   0  0  0  0  0  0  0  0  0  0  0  0
  111.1925   65.7707   35.9067 C   0  0  0  0  0  0  0  0  0  0  0  0
  109.4116   68.3118   44.3768 C   0  0  0  0  0  0  0  0  0  0  0  0
  111.2376   67.9050   32.9223 C   0  0  0  0  0  0  0  0  0  0  0  0
  110.9801   66.5547   33.5707 C   0  0  0  0  0  0  0  0  0  0  0  0
  111.0687   68.2402   35.2775 C   0  0  0  0  0  0  0  0  0  0  0  0
  110.6780   68.9056   33.9475 C   0  0  1  0  0  0  0  0  0  0  0  0
  109.8693   68.5637   45.7916 C   0  0  0  0  0  0  0  0  0  0  0  0
  111.1436   71.5935   37.2631 C   0  0  0  0  0  0  0  0  0  0  0  0
  111.0852   66.8059   34.9981 N   0  0  0  0  0  0  0  0  0  0  0  0
  110.4354   67.7700   43.5882 N   0  0  0  0  0  0  0  0  0  0  0  0
  111.2089   64.5771   35.6073 O   0  0  0  0  0  0  0  0  0  0  0  0
  108.2635   68.5725   44.0324 O   0  0  0  0  0  0  0  0  0  0  0  0
  110.9838   70.6871   36.1737 O   0  0  0  0  0  0  0  0  0  0  0  0
  112.0410   72.5710   31.3864 H   0  0  0  0  0  0  0  0  0  0  0  0
  112.2744   74.0371   33.3914 H   0  0  0  0  0  0  0  0  0  0  0  0
  112.3578   66.1001   39.7822 H   0  0  0  0  0  0  0  0  0  0  0  0
  108.2233   67.3438   39.6016 H   0  0  0  0  0  0  0  0  0  0  0  0
  111.3030   70.2026   31.6520 H   0  0  0  0  0  0  0  0  0  0  0  0
  112.4479   66.7489   42.1894 H   0  0  0  0  0  0  0  0  0  0  0  0
  108.3134   67.9925   42.0090 H   0  0  0  0  0  0  0  0  0  0  0  0
  111.7701   73.1350   35.6620 H   0  0  0  0  0  0  0  0  0  0  0  0
  109.2385   66.1246   37.6874 H   0  0  0  0  0  0  0  0  0  0  0  0
  112.2990   66.3117   37.7561 H   0  0  0  0  0  0  0  0  0  0  0  0
  112.3139   68.0659   32.7624 H   0  0  0  0  0  0  0  0  0  0  0  0
  110.7717   68.0008   31.9305 H   0  0  0  0  0  0  0  0  0  0  0  0
  109.9758   66.1863   33.3144 H   0  0  0  0  0  0  0  0  0  0  0  0
  111.6898   65.7867   33.2295 H   0  0  0  0  0  0  0  0  0  0  0  0
  112.0628   68.5814   35.6021 H   0  0  0  0  0  0  0  0  0  0  0  0
  110.3668   68.4935   36.0857 H   0  0  0  0  0  0  0  0  0  0  0  0
  109.5963   69.0625   33.8236 H   0  0  0  0  0  0  0  0  0  0  0  0
  109.1283   68.1559   46.4948 H   0  0  0  0  0  0  0  0  0  0  0  0
  110.8398   68.0726   45.9559 H   0  0  0  0  0  0  0  0  0  0  0  0
  109.9737   69.6463   45.9559 H   0  0  0  0  0  0  0  0  0  0  0  0
  111.0471   71.0464   38.2125 H   0  0  0  0  0  0  0  0  0  0  0  0
  112.1380   72.0607   37.2085 H   0  0  0  0  0  0  0  0  0  0  0  0
  110.3690   72.3726   37.2085 H   0  0  0  0  0  0  0  0  0  0  0  0
  111.3374   67.6194   44.0621 H   0  0  0  0  0  0  0  0  0  0  0  0
  1  2  2  0
  1  5  1  0
  2  8  1  0
  3  6  2  0
  3  9  1  0
  4  7  1  0
  4  9  2  0
  5 10  2  0
  6 11  1  0
  7 11  2  0
  8 12  2  0
  9 13  1  0
 10 12  1  0
 10 20  1  0
 11 24  1  0
 12 27  1  0
 13 14  2  0
 14 15  1  0
 15 23  1  0
 15 25  2  0
 16 21  1  0
 16 24  1  0
 16 26  2  0
 17 18  1  0
 17 20  1  0
 18 23  1  0
 19 20  1  0
 19 23  1  0
 22 27  1  0
  1 28  1  0
  2 29  1  0
  3 30  1  0
  4 31  1  0
  5 32  1  0
  6 33  1  0
  7 34  1  0
  8 35  1  0
 13 36  1  0
 14 37  1  0
 17 38  1  0
 17 39  1  0
 18 40  1  0
 18 41  1  0
 19 42  1  0
 19 43  1  0
 20 44  1  1
 21 45  1  0
 21 46  1  0
 21 47  1  0
 22 48  1  0
 22 49  1  0
 22 50  1  0
 24 51  1  0
M  END
>  <Name>  (41) 
CHEMBL4213757

>  <Comment>  (41) 
 Schrodinger Suite 2021-4.

>  <s_m_entry_id>  (41) 
1499

>  <s_m_Source_Path>  (41) 
C:\Users\vinicius\Desktop

>  <s_m_Source_File>  (41) 
Ligands_Saureus_failomega.smi

>  <i_m_Source_File_Index>  (41) 
35

>  <r_lp_tautomer_probability>  (41) 
1

>  <r_epik_Ionization_Penalty>  (41) 
0

>  <r_epik_State_Penalty>  (41) 
0

>  <i_epik_Tot_Q>  (41) 
0

>  <i_f3d_flags>  (41) 
0

>  <s_m_job_name>  (41) 
Saureus_fail

>  <class_value>  (41) 
0

>  <FRED Chemgauss4 score>  (41) 
-12.174131

>  <Set>  (41) 
training

>  <HBA count>  (41) 
3

>  <HBD count>  (41) 
1

>  <ExactMolWt>  (41) 
364.17869262800065

>  <NumRotatableBounds>  (41) 
7

>  <FractionCsp3>  (41) 
0.2727272727272727

>  <TPSA>  (41) 
58.64

>  <LogP_WildmanCrippen>  (41) 
3.6829000000000027

>  <General_Cluster>  (41) 
1

>  <Biological_Cluster>  (41) 
2

>  <Physicochemical_Cluster>  (41) 
1

>  <Structural_Cluster>  (41) 
2

$$$$
CHEMBL73953
     RDKit          3D

 55 59  0  0  0  0  0  0  0  0999 V2000
  108.2940   62.6791   43.6529 C   0  0  0  0  0  0  0  0  0  0  0  0
  107.4045   63.7164   43.9240 C   0  0  0  0  0  0  0  0  0  0  0  0
  109.3080   62.8353   42.7011 C   0  0  0  0  0  0  0  0  0  0  0  0
  112.3905   68.6691   37.6215 C   0  0  0  0  0  0  0  0  0  0  0  0
  107.5479   68.6894   43.5925 C   0  0  0  0  0  0  0  0  0  0  0  0
  109.8536   68.6460   42.8721 C   0  0  0  0  0  0  0  0  0  0  0  0
  107.4986   64.9399   43.2548 C   0  0  0  0  0  0  0  0  0  0  0  0
  112.2197   69.9602   37.1220 C   0  0  0  0  0  0  0  0  0  0  0  0
  107.9052   69.4744   44.6888 C   0  0  0  0  0  0  0  0  0  0  0  0
  110.2109   69.4310   43.9683 C   0  0  0  0  0  0  0  0  0  0  0  0
  110.7605   67.8422   36.0415 C   0  0  0  0  0  0  0  0  0  0  0  0
  109.4246   64.0598   42.0131 C   0  0  0  0  0  0  0  0  0  0  0  0
  111.6609   67.6100   37.0812 C   0  0  0  0  0  0  0  0  0  0  0  0
  110.3024   64.5607   41.0136 C   0  0  0  0  0  0  0  0  0  0  0  0
  108.5221   68.2751   42.6842 C   0  0  0  0  0  0  0  0  0  0  0  0
  110.5897   69.1333   35.5420 C   0  0  0  0  0  0  0  0  0  0  0  0
  108.5166   65.0839   42.3051 C   0  0  0  0  0  0  0  0  0  0  0  0
  109.2367   69.8452   44.8767 C   0  0  0  0  0  0  0  0  0  0  0  0
  111.3193   70.1923   36.0823 C   0  0  0  0  0  0  0  0  0  0  0  0
  109.9117   65.8509   40.7233 C   0  0  0  0  0  0  0  0  0  0  0  0
  111.8418   66.2490   37.6086 C   0  0  0  0  0  0  0  0  0  0  0  0
  111.4513   63.9251   40.3136 C   0  0  0  0  0  0  0  0  0  0  0  0
  110.5437   66.7706   39.7419 C   0  0  0  0  0  0  0  0  0  0  0  0
  112.3507   65.0097   39.6960 C   0  0  0  0  0  0  0  0  0  0  0  0
  109.6206   69.3641   34.4298 C   0  0  0  0  0  0  0  0  0  0  0  0
  108.1367   67.4287   41.5012 C   0  0  0  0  0  0  0  0  0  0  0  0
  108.8377   66.1619   41.5070 N   0  0  0  0  0  0  0  0  0  0  0  0
  111.5613   66.0215   38.9611 N   0  0  0  0  0  0  0  0  0  0  0  0
  112.2385   65.4022   36.8092 O   0  0  0  0  0  0  0  0  0  0  0  0
  109.5849   70.6123   45.9457 O   0  0  0  0  0  0  0  0  0  0  0  0
  111.1629   71.4600   35.6081 O   0  0  0  0  0  0  0  0  0  0  0  0
  108.1982   61.7259   44.1934 H   0  0  0  0  0  0  0  0  0  0  0  0
  106.6157   63.5703   44.6766 H   0  0  0  0  0  0  0  0  0  0  0  0
  110.0063   62.0114   42.4923 H   0  0  0  0  0  0  0  0  0  0  0  0
  113.1005   68.4861   38.4415 H   0  0  0  0  0  0  0  0  0  0  0  0
  106.4979   68.3971   43.4443 H   0  0  0  0  0  0  0  0  0  0  0  0
  110.6218   68.3194   42.1558 H   0  0  0  0  0  0  0  0  0  0  0  0
  106.7975   65.7605   43.4670 H   0  0  0  0  0  0  0  0  0  0  0  0
  112.7951   70.7953   37.5480 H   0  0  0  0  0  0  0  0  0  0  0  0
  107.1370   69.8010   45.4051 H   0  0  0  0  0  0  0  0  0  0  0  0
  111.2609   69.7234   44.1165 H   0  0  0  0  0  0  0  0  0  0  0  0
  110.1851   67.0071   35.6155 H   0  0  0  0  0  0  0  0  0  0  0  0
  112.0353   63.3330   41.0336 H   0  0  0  0  0  0  0  0  0  0  0  0
  111.0725   63.2699   39.5154 H   0  0  0  0  0  0  0  0  0  0  0  0
  109.7760   67.1677   39.0615 H   0  0  0  0  0  0  0  0  0  0  0  0
  111.0240   67.6061   40.2722 H   0  0  0  0  0  0  0  0  0  0  0  0
  112.9102   65.5095   40.5005 H   0  0  0  0  0  0  0  0  0  0  0  0
  113.0338   64.5240   38.9837 H   0  0  0  0  0  0  0  0  0  0  0  0
  108.6311   69.5998   34.8486 H   0  0  0  0  0  0  0  0  0  0  0  0
  109.9664   70.2050   33.8107 H   0  0  0  0  0  0  0  0  0  0  0  0
  109.5503   68.4576   33.8107 H   0  0  0  0  0  0  0  0  0  0  0  0
  107.0538   67.2386   41.5348 H   0  0  0  0  0  0  0  0  0  0  0  0
  108.4096   67.9711   40.5840 H   0  0  0  0  0  0  0  0  0  0  0  0
  110.5299   70.8756   46.0792 H   0  0  0  0  0  0  0  0  0  0  0  0
  110.5269   71.6376   34.8705 H   0  0  0  0  0  0  0  0  0  0  0  0
  1  2  2  0
  1  3  1  0
  2  7  1  0
  3 12  2  0
  4  8  2  0
  4 13  1  0
  5  9  2  0
  5 15  1  0
  6 10  1  0
  6 15  2  0
  7 17  2  0
  8 19  1  0
  9 18  1  0
 10 18  2  0
 11 13  2  0
 11 16  1  0
 12 14  1  0
 12 17  1  0
 13 21  1  0
 14 20  2  0
 14 22  1  0
 15 26  1  0
 16 19  2  0
 16 25  1  0
 17 27  1  0
 18 30  1  0
 19 31  1  0
 20 23  1  0
 20 27  1  0
 21 28  1  0
 21 29  2  0
 22 24  1  0
 23 28  1  0
 24 28  1  0
 26 27  1  0
  1 32  1  0
  2 33  1  0
  3 34  1  0
  4 35  1  0
  5 36  1  0
  6 37  1  0
  7 38  1  0
  8 39  1  0
  9 40  1  0
 10 41  1  0
 11 42  1  0
 22 43  1  0
 22 44  1  0
 23 45  1  0
 23 46  1  0
 24 47  1  0
 24 48  1  0
 25 49  1  0
 25 50  1  0
 25 51  1  0
 26 52  1  0
 26 53  1  0
 30 54  1  0
 31 55  1  0
M  END
>  <Name>  (42) 
CHEMBL73953

>  <Comment>  (42) 
 Schrodinger Suite 2021-4.

>  <s_m_entry_id>  (42) 
1132

>  <class_value>  (42) 
1

>  <s_m_Source_Path>  (42) 
C:\Users\vinicius\Desktop

>  <s_m_Source_File>  (42) 
Ligands_Saureus_o.sdf

>  <i_m_Source_File_Index>  (42) 
47

>  <r_lp_tautomer_probability>  (42) 
1

>  <r_epik_Ionization_Penalty>  (42) 
0.0062

>  <r_epik_State_Penalty>  (42) 
0

>  <i_epik_Tot_Q>  (42) 
0

>  <i_f3d_flags>  (42) 
0

>  <s_m_job_name>  (42) 
Saureus_o

>  <FRED Chemgauss4 score>  (42) 
-11.124840

>  <Set>  (42) 
training

>  <HBA count>  (42) 
4

>  <HBD count>  (42) 
2

>  <ExactMolWt>  (42) 
412.17869262800065

>  <NumRotatableBounds>  (42) 
6

>  <FractionCsp3>  (42) 
0.19230769230769232

>  <TPSA>  (42) 
65.7

>  <LogP_WildmanCrippen>  (42) 
4.607720000000006

>  <General_Cluster>  (42) 
3

>  <Biological_Cluster>  (42) 
1

>  <Physicochemical_Cluster>  (42) 
1

>  <Structural_Cluster>  (42) 
4

$$$$
CHEMBL307960
     RDKit          3D

 51 55  0  0  0  0  0  0  0  0999 V2000
  111.4775   65.3687   32.9038 C   0  0  0  0  0  0  0  0  0  0  0  0
  110.9153   66.6109   32.6179 C   0  0  0  0  0  0  0  0  0  0  0  0
  111.5913   64.9208   34.2247 C   0  0  0  0  0  0  0  0  0  0  0  0
  110.0907   67.5802   41.9721 C   0  0  0  0  0  0  0  0  0  0  0  0
  107.8916   66.6376   41.6367 C   0  0  0  0  0  0  0  0  0  0  0  0
  111.5784   70.4147   36.2927 C   0  0  0  0  0  0  0  0  0  0  0  0
  110.0961   70.4910   34.3864 C   0  0  0  0  0  0  0  0  0  0  0  0
  110.4495   67.4434   33.6394 C   0  0  0  0  0  0  0  0  0  0  0  0
  112.3732   71.4043   35.7143 C   0  0  0  0  0  0  0  0  0  0  0  0
  110.8909   71.4806   33.8080 C   0  0  0  0  0  0  0  0  0  0  0  0
  109.5359   68.5985   42.7473 C   0  0  0  0  0  0  0  0  0  0  0  0
  107.3369   67.6559   42.4119 C   0  0  0  0  0  0  0  0  0  0  0  0
  111.1298   65.7421   35.2729 C   0  0  0  0  0  0  0  0  0  0  0  0
  109.2685   66.5998   41.4168 C   0  0  0  0  0  0  0  0  0  0  0  0
  111.0844   65.6188   36.6881 C   0  0  0  0  0  0  0  0  0  0  0  0
  110.4399   69.9580   35.6287 C   0  0  0  0  0  0  0  0  0  0  0  0
  110.5685   66.9844   34.9563 C   0  0  0  0  0  0  0  0  0  0  0  0
  112.0295   71.9373   34.4720 C   0  0  0  0  0  0  0  0  0  0  0  0
  108.1591   68.6364   42.9672 C   0  0  0  0  0  0  0  0  0  0  0  0
  110.5032   66.7646   37.1888 C   0  0  0  0  0  0  0  0  0  0  0  0
  109.8532   65.5256   40.5996 C   0  0  0  0  0  0  0  0  0  0  0  0
  111.5252   64.5191   37.5882 C   0  0  0  0  0  0  0  0  0  0  0  0
  110.2554   67.0826   38.6192 C   0  0  0  0  0  0  0  0  0  0  0  0
  111.7053   65.0558   39.0186 C   0  0  0  0  0  0  0  0  0  0  0  0
  109.5819   68.8908   36.2529 C   0  0  0  0  0  0  0  0  0  0  0  0
  110.1978   67.5852   36.1411 N   0  0  0  0  0  0  0  0  0  0  0  0
  110.5546   65.8826   39.4418 N   0  0  0  0  0  0  0  0  0  0  0  0
  109.6836   64.3770   41.0064 O   0  0  0  0  0  0  0  0  0  0  0  0
  112.8045   72.9038   33.9084 O   0  0  0  0  0  0  0  0  0  0  0  0
  107.4750   69.8918   43.9246 Cl  0  0  0  0  0  0  0  0  0  0  0  0
  111.8362   64.7323   32.0814 H   0  0  0  0  0  0  0  0  0  0  0  0
  110.8368   66.9417   31.5718 H   0  0  0  0  0  0  0  0  0  0  0  0
  112.0360   63.9386   34.4425 H   0  0  0  0  0  0  0  0  0  0  0  0
  111.1765   67.5503   41.7987 H   0  0  0  0  0  0  0  0  0  0  0  0
  107.2432   65.8644   41.1988 H   0  0  0  0  0  0  0  0  0  0  0  0
  111.8494   69.9944   37.2725 H   0  0  0  0  0  0  0  0  0  0  0  0
  109.1982   70.1309   33.8629 H   0  0  0  0  0  0  0  0  0  0  0  0
  110.0051   68.4246   33.4163 H   0  0  0  0  0  0  0  0  0  0  0  0
  113.2711   71.7644   36.2379 H   0  0  0  0  0  0  0  0  0  0  0  0
  110.6198   71.9009   32.8283 H   0  0  0  0  0  0  0  0  0  0  0  0
  110.1843   69.3717   43.1852 H   0  0  0  0  0  0  0  0  0  0  0  0
  106.2511   67.6857   42.5853 H   0  0  0  0  0  0  0  0  0  0  0  0
  110.7665   63.7226   37.5900 H   0  0  0  0  0  0  0  0  0  0  0  0
  112.4839   64.1176   37.2279 H   0  0  0  0  0  0  0  0  0  0  0  0
  110.9055   67.9138   38.9299 H   0  0  0  0  0  0  0  0  0  0  0  0
  109.2039   67.3745   38.7576 H   0  0  0  0  0  0  0  0  0  0  0  0
  111.8057   64.2050   39.7085 H   0  0  0  0  0  0  0  0  0  0  0  0
  112.6061   65.6869   39.0370 H   0  0  0  0  0  0  0  0  0  0  0  0
  109.4345   69.1270   37.3171 H   0  0  0  0  0  0  0  0  0  0  0  0
  108.6191   68.8660   35.7216 H   0  0  0  0  0  0  0  0  0  0  0  0
  112.5607   73.2822   33.0267 H   0  0  0  0  0  0  0  0  0  0  0  0
  1  2  2  0
  1  3  1  0
  2  8  1  0
  3 13  2  0
  4 11  2  0
  4 14  1  0
  5 12  1  0
  5 14  2  0
  6  9  2  0
  6 16  1  0
  7 10  1  0
  7 16  2  0
  8 17  2  0
  9 18  1  0
 10 18  2  0
 11 19  1  0
 12 19  2  0
 13 15  1  0
 13 17  1  0
 14 21  1  0
 15 20  2  0
 15 22  1  0
 16 25  1  0
 17 26  1  0
 18 29  1  0
 19 30  1  0
 20 23  1  0
 20 26  1  0
 21 27  1  0
 21 28  2  0
 22 24  1  0
 23 27  1  0
 24 27  1  0
 25 26  1  0
  1 31  1  0
  2 32  1  0
  3 33  1  0
  4 34  1  0
  5 35  1  0
  6 36  1  0
  7 37  1  0
  8 38  1  0
  9 39  1  0
 10 40  1  0
 11 41  1  0
 12 42  1  0
 22 43  1  0
 22 44  1  0
 23 45  1  0
 23 46  1  0
 24 47  1  0
 24 48  1  0
 25 49  1  0
 25 50  1  0
 29 51  1  0
M  END
>  <Name>  (43) 
CHEMBL307960

>  <Comment>  (43) 
 Schrodinger Suite 2021-4.

>  <s_m_entry_id>  (43) 
1135

>  <class_value>  (43) 
1

>  <s_m_Source_Path>  (43) 
C:\Users\vinicius\Desktop

>  <s_m_Source_File>  (43) 
Ligands_Saureus_o.sdf

>  <i_m_Source_File_Index>  (43) 
49

>  <r_lp_tautomer_probability>  (43) 
0.999999999997365

>  <r_epik_Ionization_Penalty>  (43) 
0.0009

>  <r_epik_State_Penalty>  (43) 
0.0006

>  <i_epik_Tot_Q>  (43) 
0

>  <i_f3d_flags>  (43) 
0

>  <s_m_job_name>  (43) 
Saureus_o

>  <FRED Chemgauss4 score>  (43) 
-12.558627

>  <Set>  (43) 
training

>  <HBA count>  (43) 
3

>  <HBD count>  (43) 
1

>  <ExactMolWt>  (43) 
416.1291555920006

>  <NumRotatableBounds>  (43) 
4

>  <FractionCsp3>  (43) 
0.16

>  <TPSA>  (43) 
45.47

>  <LogP_WildmanCrippen>  (43) 
5.247100000000004

>  <General_Cluster>  (43) 
3

>  <Biological_Cluster>  (43) 
1

>  <Physicochemical_Cluster>  (43) 
1

>  <Structural_Cluster>  (43) 
4

$$$$
CHEMBL304015
     RDKit          3D

 36 38  0  0  0  0  0  0  0  0999 V2000
  111.3892   71.5256   32.5548 C   0  0  0  0  0  0  0  0  0  0  0  0
  111.3015   70.9533   33.8238 C   0  0  0  0  0  0  0  0  0  0  0  0
  110.9080   70.8340   31.4430 C   0  0  0  0  0  0  0  0  0  0  0  0
  110.5804   67.1629   38.3896 C   0  0  0  0  0  0  0  0  0  0  0  0
  111.1122   64.8223   38.1140 C   0  0  0  0  0  0  0  0  0  0  0  0
  110.7327   69.6894   33.9811 C   0  0  0  0  0  0  0  0  0  0  0  0
  110.3392   69.5702   31.6003 C   0  0  0  0  0  0  0  0  0  0  0  0
  110.6364   67.0125   39.7751 C   0  0  0  0  0  0  0  0  0  0  0  0
  111.1681   64.6719   39.4996 C   0  0  0  0  0  0  0  0  0  0  0  0
  109.9635   67.1268   35.4716 C   0  0  0  0  0  0  0  0  0  0  0  0
  111.1574   65.9242   34.0627 C   0  0  0  0  0  0  0  0  0  0  0  0
  110.8183   66.0678   37.5590 C   0  0  0  0  0  0  0  0  0  0  0  0
  110.2516   68.9978   32.8693 C   0  0  0  0  0  0  0  0  0  0  0  0
  110.9302   65.7670   40.3302 C   0  0  0  0  0  0  0  0  0  0  0  0
  110.7603   66.2219   36.1325 C   0  0  0  0  0  0  0  0  0  0  0  0
  110.7318   66.7805   42.4724 C   0  0  0  0  0  0  0  0  0  0  0  0
  109.6380   67.6342   33.0383 C   0  0  0  0  0  0  0  0  0  0  0  0
  111.5012   65.4765   35.2498 N   0  0  0  0  0  0  0  0  0  0  0  0
  110.2292   66.9245   34.1465 N   0  0  0  0  0  0  0  0  0  0  0  0
  110.9852   65.6199   41.6822 O   0  0  0  0  0  0  0  0  0  0  0  0
  111.8378   72.5223   32.4307 H   0  0  0  0  0  0  0  0  0  0  0  0
  111.6809   71.4987   34.7005 H   0  0  0  0  0  0  0  0  0  0  0  0
  110.9771   71.2853   30.4422 H   0  0  0  0  0  0  0  0  0  0  0  0
  110.3486   68.1451   37.9519 H   0  0  0  0  0  0  0  0  0  0  0  0
  111.2999   63.9587   37.4590 H   0  0  0  0  0  0  0  0  0  0  0  0
  110.6635   69.2381   34.9819 H   0  0  0  0  0  0  0  0  0  0  0  0
  109.9597   69.0249   30.7236 H   0  0  0  0  0  0  0  0  0  0  0  0
  110.4489   67.8761   40.4301 H   0  0  0  0  0  0  0  0  0  0  0  0
  111.3998   63.6897   39.9373 H   0  0  0  0  0  0  0  0  0  0  0  0
  109.2656   67.8538   35.9126 H   0  0  0  0  0  0  0  0  0  0  0  0
  111.5669   65.5405   33.1166 H   0  0  0  0  0  0  0  0  0  0  0  0
  110.7892   66.5176   43.5390 H   0  0  0  0  0  0  0  0  0  0  0  0
  111.4829   67.5509   42.2437 H   0  0  0  0  0  0  0  0  0  0  0  0
  109.7279   67.1678   42.2437 H   0  0  0  0  0  0  0  0  0  0  0  0
  108.5591   67.7473   33.2204 H   0  0  0  0  0  0  0  0  0  0  0  0
  109.8205   67.0563   32.1203 H   0  0  0  0  0  0  0  0  0  0  0  0
  1  2  2  0
  1  3  1  0
  2  6  1  0
  3  7  2  0
  4  8  2  0
  4 12  1  0
  5  9  1  0
  5 12  2  0
  6 13  2  0
  7 13  1  0
  8 14  1  0
  9 14  2  0
 10 15  2  0
 10 19  1  0
 11 18  2  0
 11 19  1  0
 12 15  1  0
 13 17  1  0
 14 20  1  0
 15 18  1  0
 16 20  1  0
 17 19  1  0
  1 21  1  0
  2 22  1  0
  3 23  1  0
  4 24  1  0
  5 25  1  0
  6 26  1  0
  7 27  1  0
  8 28  1  0
  9 29  1  0
 10 30  1  0
 11 31  1  0
 16 32  1  0
 16 33  1  0
 16 34  1  0
 17 35  1  0
 17 36  1  0
M  END
>  <Name>  (44) 
CHEMBL304015

>  <Comment>  (44) 
 Schrodinger Suite 2021-4.

>  <s_m_entry_id>  (44) 
1296

>  <class_value>  (44) 
0

>  <s_m_Source_Path>  (44) 
C:\Users\vinicius\Desktop

>  <s_m_Source_File>  (44) 
Ligands_Saureus_o.sdf

>  <i_m_Source_File_Index>  (44) 
176

>  <r_lp_tautomer_probability>  (44) 
1

>  <r_epik_Ionization_Penalty>  (44) 
0.0819

>  <r_epik_State_Penalty>  (44) 
0.0726

>  <i_epik_Tot_Q>  (44) 
0

>  <i_f3d_flags>  (44) 
0

>  <s_m_job_name>  (44) 
Saureus_o

>  <FRED Chemgauss4 score>  (44) 
-12.576860

>  <Set>  (44) 
training

>  <HBA count>  (44) 
3

>  <HBD count>  (44) 
0

>  <ExactMolWt>  (44) 
264.12626313200025

>  <NumRotatableBounds>  (44) 
5

>  <FractionCsp3>  (44) 
0.11764705882352941

>  <TPSA>  (44) 
27.05

>  <LogP_WildmanCrippen>  (44) 
3.607000000000002

>  <General_Cluster>  (44) 
2

>  <Biological_Cluster>  (44) 
2

>  <Physicochemical_Cluster>  (44) 
3

>  <Structural_Cluster>  (44) 
3

$$$$
CHEMBL111031
     RDKit          3D

 43 45  0  0  0  0  0  0  0  0999 V2000
  112.1282   72.7724   34.8611 C   0  0  0  0  0  0  0  0  0  0  0  0
  111.6711   72.8094   33.5453 C   0  0  0  0  0  0  0  0  0  0  0  0
  111.9706   71.6216   35.6421 C   0  0  0  0  0  0  0  0  0  0  0  0
  111.0437   71.7013   32.9688 C   0  0  0  0  0  0  0  0  0  0  0  0
  111.0213   69.1931   35.5676 C   0  0  0  0  0  0  0  0  0  0  0  0
  110.4555   66.9812   39.5895 C   0  0  0  0  0  0  0  0  0  0  0  0
  112.3140   65.7983   40.3660 C   0  0  0  0  0  0  0  0  0  0  0  0
  111.3411   70.4921   35.0824 C   0  0  0  0  0  0  0  0  0  0  0  0
  111.5624   66.2150   39.2863 C   0  0  0  0  0  0  0  0  0  0  0  0
  110.8930   70.5579   33.7613 C   0  0  0  0  0  0  0  0  0  0  0  0
  110.3967   68.5084   34.5508 C   0  0  0  0  0  0  0  0  0  0  0  0
  110.9132   66.8532   41.8124 C   0  0  0  0  0  0  0  0  0  0  0  0
  111.9190   65.8658   37.8999 C   0  0  0  0  0  0  0  0  0  0  0  0
  111.0679   65.8983   36.8636 C   0  0  0  0  0  0  0  0  0  0  0  0
  111.5427   65.4889   35.5089 C   0  0  0  0  0  0  0  0  0  0  0  0
  109.7349   68.9888   32.1892 C   0  0  0  0  0  0  0  0  0  0  0  0
  111.3064   65.7436   33.0685 C   0  0  0  0  0  0  0  0  0  0  0  0
  109.8547   67.1084   34.5262 C   0  0  0  0  0  0  0  0  0  0  0  0
  110.1000   67.3204   40.8460 N   0  0  0  0  0  0  0  0  0  0  0  0
  112.0175   66.1003   41.6471 N   0  0  0  0  0  0  0  0  0  0  0  0
  110.3241   69.3397   33.4654 N   0  0  0  0  0  0  0  0  0  0  0  0
  110.5732   67.1912   43.1407 N   0  0  0  0  0  0  0  0  0  0  0  0
  110.9189   66.1116   34.4242 N   0  0  0  0  0  0  0  0  0  0  0  0
  112.4187   64.6295   35.4016 O   0  0  0  0  0  0  0  0  0  0  0  0
  112.6187   73.6581   35.2911 H   0  0  0  0  0  0  0  0  0  0  0  0
  111.8061   73.7251   32.9509 H   0  0  0  0  0  0  0  0  0  0  0  0
  112.3338   71.5993   36.6802 H   0  0  0  0  0  0  0  0  0  0  0  0
  110.6818   71.7271   31.9304 H   0  0  0  0  0  0  0  0  0  0  0  0
  111.2351   68.8060   36.5748 H   0  0  0  0  0  0  0  0  0  0  0  0
  109.8270   67.3357   38.7592 H   0  0  0  0  0  0  0  0  0  0  0  0
  113.2059   65.1848   40.1710 H   0  0  0  0  0  0  0  0  0  0  0  0
  112.9558   65.5568   37.7008 H   0  0  0  0  0  0  0  0  0  0  0  0
  110.0277   66.2243   37.0110 H   0  0  0  0  0  0  0  0  0  0  0  0
  108.8009   68.4325   32.3571 H   0  0  0  0  0  0  0  0  0  0  0  0
  109.5187   69.9054   31.6208 H   0  0  0  0  0  0  0  0  0  0  0  0
  110.4378   68.3621   31.6208 H   0  0  0  0  0  0  0  0  0  0  0  0
  112.1035   64.9866   33.1077 H   0  0  0  0  0  0  0  0  0  0  0  0
  110.4356   65.3320   32.5372 H   0  0  0  0  0  0  0  0  0  0  0  0
  111.6726   66.6345   32.5372 H   0  0  0  0  0  0  0  0  0  0  0  0
  109.2887   66.9303   35.4524 H   0  0  0  0  0  0  0  0  0  0  0  0
  109.2097   67.0090   33.6407 H   0  0  0  0  0  0  0  0  0  0  0  0
  111.1584   66.8620   43.9218 H   0  0  0  0  0  0  0  0  0  0  0  0
  109.7400   67.7669   43.3285 H   0  0  0  0  0  0  0  0  0  0  0  0
  1  2  2  0
  1  3  1  0
  2  4  1  0
  3  8  2  0
  4 10  2  0
  5  8  1  0
  5 11  2  0
  6  9  2  0
  6 19  1  0
  7  9  1  0
  7 20  2  0
  8 10  1  0
  9 13  1  0
 10 21  1  0
 11 18  1  0
 11 21  1  0
 12 19  2  0
 12 20  1  0
 12 22  1  0
 13 14  2  0
 14 15  1  0
 15 23  1  0
 15 24  2  0
 16 21  1  0
 17 23  1  0
 18 23  1  0
  1 25  1  0
  2 26  1  0
  3 27  1  0
  4 28  1  0
  5 29  1  0
  6 30  1  0
  7 31  1  0
 13 32  1  0
 14 33  1  0
 16 34  1  0
 16 35  1  0
 16 36  1  0
 17 37  1  0
 17 38  1  0
 17 39  1  0
 18 40  1  0
 18 41  1  0
 22 42  1  0
 22 43  1  0
M  END
>  <Name>  (45) 
CHEMBL111031

>  <Comment>  (45) 
 Schrodinger Suite 2021-4.

>  <s_m_entry_id>  (45) 
1223

>  <class_value>  (45) 
0

>  <s_m_Source_Path>  (45) 
C:\Users\vinicius\Desktop

>  <s_m_Source_File>  (45) 
Ligands_Saureus_o.sdf

>  <i_m_Source_File_Index>  (45) 
118

>  <r_lp_tautomer_probability>  (45) 
1

>  <r_epik_Ionization_Penalty>  (45) 
0

>  <r_epik_State_Penalty>  (45) 
0

>  <i_epik_Tot_Q>  (45) 
0

>  <i_f3d_flags>  (45) 
0

>  <s_m_job_name>  (45) 
Saureus_o

>  <FRED Chemgauss4 score>  (45) 
-16.342562

>  <Set>  (45) 
training

>  <HBA count>  (45) 
5

>  <HBD count>  (45) 
1

>  <ExactMolWt>  (45) 
321.1589602280006

>  <NumRotatableBounds>  (45) 
7

>  <FractionCsp3>  (45) 
0.16666666666666666

>  <TPSA>  (45) 
77.04

>  <LogP_WildmanCrippen>  (45) 
2.2223000000000006

>  <General_Cluster>  (45) 
5

>  <Biological_Cluster>  (45) 
2

>  <Physicochemical_Cluster>  (45) 
4

>  <Structural_Cluster>  (45) 
3

$$$$
FULL_H4
     RDKit          3D

 39 41  0  0  0  0  0  0  0  0999 V2000
  107.7870   67.3023   41.6449 C   0  0  0  0  0  0  0  0  0  0  0  0
  109.9604   67.1506   35.6935 C   0  0  0  0  0  0  0  0  0  0  0  0
  111.4881   65.4637   34.8826 C   0  0  0  0  0  0  0  0  0  0  0  0
  107.2534   66.2971   42.4514 C   0  0  0  0  0  0  0  0  0  0  0  0
  109.0741   67.1689   41.1240 C   0  0  0  0  0  0  0  0  0  0  0  0
  109.7717   67.6068   34.3889 C   0  0  0  0  0  0  0  0  0  0  0  0
  111.2994   65.9199   33.5780 C   0  0  0  0  0  0  0  0  0  0  0  0
  109.2941   65.0253   42.2163 C   0  0  0  0  0  0  0  0  0  0  0  0
  110.9333   66.3937   38.4096 C   0  0  0  0  0  0  0  0  0  0  0  0
  111.4040   64.3013   38.9163 C   0  0  0  0  0  0  0  0  0  0  0  0
  110.8187   66.0791   35.9403 C   0  0  0  0  0  0  0  0  0  0  0  0
  108.0070   65.1586   42.7372 C   0  0  0  0  0  0  0  0  0  0  0  0
  109.8276   66.0304   41.4097 C   0  0  0  0  0  0  0  0  0  0  0  0
  110.4411   66.9914   33.3312 C   0  0  0  0  0  0  0  0  0  0  0  0
  111.0138   65.6094   37.2832 C   0  0  0  0  0  0  0  0  0  0  0  0
  107.4352   64.0836   43.5984 C   0  0  0  0  0  0  0  0  0  0  0  0
  109.3657   68.5354   31.8768 C   0  0  0  0  0  0  0  0  0  0  0  0
  111.2164   65.8870   40.8483 C   0  0  0  0  0  0  0  0  0  0  0  0
  111.3068   64.3079   37.6054 N   0  0  0  0  0  0  0  0  0  0  0  0
  111.1851   65.5418   39.4479 N   0  0  0  0  0  0  0  0  0  0  0  0
  110.2570   67.4361   32.0581 O   0  0  0  0  0  0  0  0  0  0  0  0
  107.1928   68.2002   41.4197 H   0  0  0  0  0  0  0  0  0  0  0  0
  109.4324   67.6358   36.5276 H   0  0  0  0  0  0  0  0  0  0  0  0
  112.1648   64.6186   35.0773 H   0  0  0  0  0  0  0  0  0  0  0  0
  106.2383   66.4022   42.8620 H   0  0  0  0  0  0  0  0  0  0  0  0
  109.4949   67.9616   40.4879 H   0  0  0  0  0  0  0  0  0  0  0  0
  109.0950   68.4519   34.1942 H   0  0  0  0  0  0  0  0  0  0  0  0
  111.8274   65.4347   32.7439 H   0  0  0  0  0  0  0  0  0  0  0  0
  109.8884   64.1275   42.4417 H   0  0  0  0  0  0  0  0  0  0  0  0
  110.7143   67.4704   38.4632 H   0  0  0  0  0  0  0  0  0  0  0  0
  111.6336   63.4063   39.5132 H   0  0  0  0  0  0  0  0  0  0  0  0
  107.5759   64.3480   44.6568 H   0  0  0  0  0  0  0  0  0  0  0  0
  106.3611   63.9767   43.3868 H   0  0  0  0  0  0  0  0  0  0  0  0
  107.9470   63.1332   43.3868 H   0  0  0  0  0  0  0  0  0  0  0  0
  109.0537   68.9203   32.8589 H   0  0  0  0  0  0  0  0  0  0  0  0
  109.8758   69.3324   31.3159 H   0  0  0  0  0  0  0  0  0  0  0  0
  108.4805   68.2011   31.3159 H   0  0  0  0  0  0  0  0  0  0  0  0
  111.7518   66.8402   40.9701 H   0  0  0  0  0  0  0  0  0  0  0  0
  111.7281   65.0795   41.3925 H   0  0  0  0  0  0  0  0  0  0  0  0
  1  4  2  0
  1  5  1  0
  2  6  2  0
  2 11  1  0
  3  7  1  0
  3 11  2  0
  4 12  1  0
  5 13  2  0
  6 14  1  0
  7 14  2  0
  8 12  2  0
  8 13  1  0
  9 15  2  0
  9 20  1  0
 10 19  2  0
 10 20  1  0
 11 15  1  0
 12 16  1  0
 13 18  1  0
 14 21  1  0
 15 19  1  0
 17 21  1  0
 18 20  1  0
  1 22  1  0
  2 23  1  0
  3 24  1  0
  4 25  1  0
  5 26  1  0
  6 27  1  0
  7 28  1  0
  8 29  1  0
  9 30  1  0
 10 31  1  0
 16 32  1  0
 16 33  1  0
 16 34  1  0
 17 35  1  0
 17 36  1  0
 17 37  1  0
 18 38  1  0
 18 39  1  0
M  END
>  <Name>  (46) 
FULL_H4

>  <Comment>  (46) 
 Schrodinger Suite 2021-4.

>  <s_m_entry_id>  (46) 
1382

>  <class_value>  (46) 
1

>  <s_m_Source_Path>  (46) 
C:\Users\vinicius\Desktop

>  <s_m_Source_File>  (46) 
Ligands_Saureus_o.sdf

>  <i_m_Source_File_Index>  (46) 
226

>  <r_lp_tautomer_probability>  (46) 
1

>  <r_epik_Ionization_Penalty>  (46) 
0.0819

>  <r_epik_State_Penalty>  (46) 
0.0726

>  <i_epik_Tot_Q>  (46) 
0

>  <i_f3d_flags>  (46) 
0

>  <s_m_job_name>  (46) 
Saureus_o

>  <FRED Chemgauss4 score>  (46) 
-12.982769

>  <Set>  (46) 
training

>  <HBA count>  (46) 
3

>  <HBD count>  (46) 
0

>  <ExactMolWt>  (46) 
278.1419131960005

>  <NumRotatableBounds>  (46) 
6

>  <FractionCsp3>  (46) 
0.16666666666666666

>  <TPSA>  (46) 
27.05

>  <LogP_WildmanCrippen>  (46) 
3.915420000000003

>  <General_Cluster>  (46) 
2

>  <Biological_Cluster>  (46) 
1

>  <Physicochemical_Cluster>  (46) 
3

>  <Structural_Cluster>  (46) 
3

$$$$
CHEMBL3322707
     RDKit          3D

 48 51  0  0  0  0  0  0  0  0999 V2000
  112.4299   72.2075   31.1846 C   0  0  0  0  0  0  0  0  0  0  0  0
  112.4270   72.9823   32.3444 C   0  0  0  0  0  0  0  0  0  0  0  0
  111.6687   71.0402   31.1237 C   0  0  0  0  0  0  0  0  0  0  0  0
  111.6630   72.5897   33.4434 C   0  0  0  0  0  0  0  0  0  0  0  0
  110.2450   66.8309   39.3662 C   0  0  0  0  0  0  0  0  0  0  0  0
  112.2203   65.7900   40.1764 C   0  0  0  0  0  0  0  0  0  0  0  0
  111.3723   66.0581   39.1164 C   0  0  0  0  0  0  0  0  0  0  0  0
  109.9904   67.2915   40.6588 C   0  0  0  0  0  0  0  0  0  0  0  0
  110.9047   70.6476   32.2227 C   0  0  0  0  0  0  0  0  0  0  0  0
  110.9018   71.4224   33.3826 C   0  0  0  0  0  0  0  0  0  0  0  0
  110.9013   66.9631   41.6622 C   0  0  0  0  0  0  0  0  0  0  0  0
  109.5200   68.0651   43.3834 C   0  0  0  0  0  0  0  0  0  0  0  0
  111.6595   65.5605   37.7835 C   0  0  0  0  0  0  0  0  0  0  0  0
  111.1585   66.0571   36.6278 C   0  0  0  0  0  0  0  0  0  0  0  0
  111.4728   65.5104   35.2953 C   0  0  0  0  0  0  0  0  0  0  0  0
  108.8398   68.2057   40.9532 C   0  0  0  0  0  0  0  0  0  0  0  0
  108.3748   68.0421   42.3916 C   0  0  0  0  0  0  0  0  0  0  0  0
  109.9641   67.2722   34.1336 C   0  0  0  0  0  0  0  0  0  0  0  0
  110.9311   65.8640   32.8268 C   0  0  0  0  0  0  0  0  0  0  0  0
  110.1156   67.1495   32.6071 C   0  0  0  0  0  0  0  0  0  0  0  0
  110.8580   68.2883   31.9276 C   0  0  0  0  0  0  0  0  0  0  0  0
  112.0170   66.2290   41.4386 N   0  0  0  0  0  0  0  0  0  0  0  0
  110.6780   67.4374   42.9690 N   0  0  0  0  0  0  0  0  0  0  0  0
  110.8703   66.1469   34.2481 N   0  0  0  0  0  0  0  0  0  0  0  0
  109.3777   68.5322   44.5133 O   0  0  0  0  0  0  0  0  0  0  0  0
  112.2292   64.5481   35.1908 O   0  0  0  0  0  0  0  0  0  0  0  0
  110.1568   69.4994   32.1618 O   0  0  0  0  0  0  0  0  0  0  0  0
  110.1700   71.0506   34.4419 F   0  0  0  0  0  0  0  0  0  0  0  0
  113.0325   72.5170   30.3179 H   0  0  0  0  0  0  0  0  0  0  0  0
  113.0272   73.9029   32.3924 H   0  0  0  0  0  0  0  0  0  0  0  0
  111.6709   70.4293   30.2090 H   0  0  0  0  0  0  0  0  0  0  0  0
  111.6608   73.2007   34.3581 H   0  0  0  0  0  0  0  0  0  0  0  0
  109.5545   67.0792   38.5467 H   0  0  0  0  0  0  0  0  0  0  0  0
  113.1155   65.1818   39.9797 H   0  0  0  0  0  0  0  0  0  0  0  0
  112.3451   64.7038   37.7053 H   0  0  0  0  0  0  0  0  0  0  0  0
  110.4772   66.9187   36.6866 H   0  0  0  0  0  0  0  0  0  0  0  0
  109.1562   69.2469   40.7926 H   0  0  0  0  0  0  0  0  0  0  0  0
  108.0063   67.9511   40.2820 H   0  0  0  0  0  0  0  0  0  0  0  0
  107.8487   67.0805   42.4840 H   0  0  0  0  0  0  0  0  0  0  0  0
  107.7157   68.8910   42.6259 H   0  0  0  0  0  0  0  0  0  0  0  0
  110.3443   68.2129   34.5585 H   0  0  0  0  0  0  0  0  0  0  0  0
  108.9773   67.2731   34.6196 H   0  0  0  0  0  0  0  0  0  0  0  0
  110.4210   64.9387   32.5206 H   0  0  0  0  0  0  0  0  0  0  0  0
  111.8869   65.6890   32.3112 H   0  0  0  0  0  0  0  0  0  0  0  0
  109.2345   67.1559   31.9486 H   0  0  0  0  0  0  0  0  0  0  0  0
  111.8747   68.3646   32.3406 H   0  0  0  0  0  0  0  0  0  0  0  0
  110.9220   68.0982   30.8460 H   0  0  0  0  0  0  0  0  0  0  0  0
  111.4286   67.3074   43.6622 H   0  0  0  0  0  0  0  0  0  0  0  0
  1  2  2  0
  1  3  1  0
  2  4  1  0
  3  9  2  0
  4 10  2  0
  5  7  2  0
  5  8  1  0
  6  7  1  0
  6 22  2  0
  7 13  1  0
  8 11  2  0
  8 16  1  0
  9 10  1  0
  9 27  1  0
 10 28  1  0
 11 22  1  0
 11 23  1  0
 12 17  1  0
 12 23  1  0
 12 25  2  0
 13 14  2  0
 14 15  1  0
 15 24  1  0
 15 26  2  0
 16 17  1  0
 18 20  1  0
 18 24  1  0
 19 20  1  0
 19 24  1  0
 20 21  1  0
 21 27  1  0
  1 29  1  0
  2 30  1  0
  3 31  1  0
  4 32  1  0
  5 33  1  0
  6 34  1  0
 13 35  1  0
 14 36  1  0
 16 37  1  0
 16 38  1  0
 17 39  1  0
 17 40  1  0
 18 41  1  0
 18 42  1  0
 19 43  1  0
 19 44  1  0
 20 45  1  0
 21 46  1  0
 21 47  1  0
 23 48  1  0
M  END
>  <Name>  (47) 
CHEMBL3322707

>  <Comment>  (47) 
 Schrodinger Suite 2021-4.

>  <s_m_entry_id>  (47) 
1160

>  <class_value>  (47) 
1

>  <s_m_Source_Path>  (47) 
C:\Users\vinicius\Desktop

>  <s_m_Source_File>  (47) 
Ligands_Saureus_o.sdf

>  <i_m_Source_File_Index>  (47) 
68

>  <r_lp_tautomer_probability>  (47) 
1

>  <r_epik_Ionization_Penalty>  (47) 
0.0002

>  <r_epik_State_Penalty>  (47) 
0

>  <i_epik_Tot_Q>  (47) 
0

>  <i_f3d_flags>  (47) 
0

>  <s_m_job_name>  (47) 
Saureus_o

>  <FRED Chemgauss4 score>  (47) 
-15.076115

>  <Set>  (47) 
training

>  <HBA count>  (47) 
4

>  <HBD count>  (47) 
1

>  <ExactMolWt>  (47) 
381.14886972000056

>  <NumRotatableBounds>  (47) 
5

>  <FractionCsp3>  (47) 
0.2857142857142857

>  <TPSA>  (47) 
71.53

>  <LogP_WildmanCrippen>  (47) 
2.6560000000000006

>  <General_Cluster>  (47) 
1

>  <Biological_Cluster>  (47) 
1

>  <Physicochemical_Cluster>  (47) 
4

>  <Structural_Cluster>  (47) 
2

$$$$
CHEMBL2178290
     RDKit          3D

 30 31  0  0  0  0  0  0  0  0999 V2000
  110.9511   66.3319   33.7133 C   0  0  0  0  0  0  0  0  0  0  0  0
  109.1011   66.3435   35.8014 C   0  0  0  0  0  0  0  0  0  0  0  0
  109.9268   67.2785   33.7324 C   0  0  0  0  0  0  0  0  0  0  0  0
  111.0503   65.3909   34.7383 C   0  0  0  0  0  0  0  0  0  0  0  0
  110.1253   65.3968   35.7823 C   0  0  0  0  0  0  0  0  0  0  0  0
  109.0019   67.2843   34.7764 C   0  0  0  0  0  0  0  0  0  0  0  0
  112.3928   66.3623   39.1174 C   0  0  0  0  0  0  0  0  0  0  0  0
  111.5999   66.0100   37.9655 C   0  0  0  0  0  0  0  0  0  0  0  0
  112.5060   65.4962   40.1300 C   0  0  0  0  0  0  0  0  0  0  0  0
  110.9709   64.8261   37.8873 C   0  0  0  0  0  0  0  0  0  0  0  0
  111.0963   63.8542   39.0208 C   0  0  0  0  0  0  0  0  0  0  0  0
  110.8461   69.4074   32.7787 C   0  0  0  0  0  0  0  0  0  0  0  0
  109.8232   68.2833   32.6353 C   0  0  0  0  0  0  0  0  0  0  0  0
  111.8772   64.2772   40.0861 N   0  0  0  0  0  0  0  0  0  0  0  0
  110.5331   62.7631   38.9771 O   0  0  0  0  0  0  0  0  0  0  0  0
  112.0551   64.4715   34.7091 O   0  0  0  0  0  0  0  0  0  0  0  0
  110.2119   64.4797   36.7926 O   0  0  0  0  0  0  0  0  0  0  0  0
  108.0141   68.1901   34.8035 F   0  0  0  0  0  0  0  0  0  0  0  0
  111.6806   66.3274   32.8900 H   0  0  0  0  0  0  0  0  0  0  0  0
  108.3717   66.3481   36.6248 H   0  0  0  0  0  0  0  0  0  0  0  0
  112.9010   67.3368   39.1628 H   0  0  0  0  0  0  0  0  0  0  0  0
  111.5085   66.7251   37.1346 H   0  0  0  0  0  0  0  0  0  0  0  0
  113.1106   65.7642   41.0090 H   0  0  0  0  0  0  0  0  0  0  0  0
  111.0262   69.6053   33.8456 H   0  0  0  0  0  0  0  0  0  0  0  0
  111.7889   69.1089   32.2969 H   0  0  0  0  0  0  0  0  0  0  0  0
  110.4603   70.3179   32.2969 H   0  0  0  0  0  0  0  0  0  0  0  0
  109.9888   67.7752   31.6738 H   0  0  0  0  0  0  0  0  0  0  0  0
  108.8206   68.7331   32.6854 H   0  0  0  0  0  0  0  0  0  0  0  0
  111.9915   63.6415   40.8884 H   0  0  0  0  0  0  0  0  0  0  0  0
  112.1329   63.8001   35.4325 H   0  0  0  0  0  0  0  0  0  0  0  0
  1  3  2  0
  1  4  1  0
  2  5  1  0
  2  6  2  0
  3  6  1  0
  3 13  1  0
  4  5  2  0
  4 16  1  0
  5 17  1  0
  6 18  1  0
  7  8  1  0
  7  9  2  0
  8 10  2  0
  9 14  1  0
 10 11  1  0
 10 17  1  0
 11 14  1  0
 11 15  2  0
 12 13  1  0
  1 19  1  0
  2 20  1  0
  7 21  1  0
  8 22  1  0
  9 23  1  0
 12 24  1  0
 12 25  1  0
 12 26  1  0
 13 27  1  0
 13 28  1  0
 14 29  1  0
 16 30  1  0
M  END
>  <Name>  (48) 
CHEMBL2178290

>  <Comment>  (48) 
 Schrodinger Suite 2021-4.

>  <s_m_entry_id>  (48) 
1290

>  <class_value>  (48) 
0

>  <s_m_Source_Path>  (48) 
C:\Users\vinicius\Desktop

>  <s_m_Source_File>  (48) 
Ligands_Saureus_o.sdf

>  <i_m_Source_File_Index>  (48) 
171

>  <r_lp_tautomer_probability>  (48) 
1

>  <r_epik_Ionization_Penalty>  (48) 
0.0021

>  <r_epik_State_Penalty>  (48) 
0

>  <i_epik_Tot_Q>  (48) 
0

>  <i_f3d_flags>  (48) 
0

>  <s_m_job_name>  (48) 
Saureus_o

>  <FRED Chemgauss4 score>  (48) 
-12.606542

>  <Set>  (48) 
training

>  <HBA count>  (48) 
3

>  <HBD count>  (48) 
2

>  <ExactMolWt>  (48) 
249.080121464

>  <NumRotatableBounds>  (48) 
5

>  <FractionCsp3>  (48) 
0.15384615384615385

>  <TPSA>  (48) 
62.32000000000001

>  <LogP_WildmanCrippen>  (48) 
2.5743000000000005

>  <General_Cluster>  (48) 
4

>  <Biological_Cluster>  (48) 
2

>  <Physicochemical_Cluster>  (48) 
3

>  <Structural_Cluster>  (48) 
1

$$$$
CHEMBL3623426
     RDKit          3D

 43 45  0  0  0  0  0  0  0  0999 V2000
  110.1108   68.9035   31.9776 C   0  0  0  0  0  0  0  0  0  0  0  0
  110.1167   67.5892   32.4447 C   0  0  0  0  0  0  0  0  0  0  0  0
  110.2631   69.9625   32.8726 C   0  0  0  0  0  0  0  0  0  0  0  0
  108.4415   68.6387   43.8662 C   0  0  0  0  0  0  0  0  0  0  0  0
  110.2747   67.3339   33.8068 C   0  0  0  0  0  0  0  0  0  0  0  0
  110.4211   69.7071   34.2348 C   0  0  0  0  0  0  0  0  0  0  0  0
  109.5929   68.2664   43.1725 C   0  0  0  0  0  0  0  0  0  0  0  0
  107.6881   66.3433   43.8479 C   0  0  0  0  0  0  0  0  0  0  0  0
  107.4891   67.6771   44.2040 C   0  0  0  0  0  0  0  0  0  0  0  0
  108.8395   65.9709   43.1541 C   0  0  0  0  0  0  0  0  0  0  0  0
  110.4269   68.3928   34.7019 C   0  0  0  0  0  0  0  0  0  0  0  0
  109.7919   66.9325   42.8164 C   0  0  0  0  0  0  0  0  0  0  0  0
  111.9499   66.3200   38.4683 C   0  0  0  0  0  0  0  0  0  0  0  0
  109.7664   66.9832   40.0937 C   0  0  0  0  0  0  0  0  0  0  0  0
  110.8695   66.6247   40.7632 C   0  0  0  0  0  0  0  0  0  0  0  0
  110.7747   66.6992   37.9316 C   0  0  0  0  0  0  0  0  0  0  0  0
  112.0744   66.2572   39.9572 C   0  0  0  0  0  0  0  0  0  0  0  0
  106.2590   68.0756   44.9469 C   0  0  0  0  0  0  0  0  0  0  0  0
  109.0371   64.5384   42.7820 C   0  0  0  0  0  0  0  0  0  0  0  0
  110.5757   66.7857   36.4486 C   0  0  0  0  0  0  0  0  0  0  0  0
  109.6978   67.0263   38.7287 N   0  0  0  0  0  0  0  0  0  0  0  0
  113.1255   65.9171   40.4891 O   0  0  0  0  0  0  0  0  0  0  0  0
  110.9266   66.5852   42.1344 O   0  0  0  0  0  0  0  0  0  0  0  0
  110.5809   68.1421   36.0431 O   0  0  0  0  0  0  0  0  0  0  0  0
  109.9860   69.1049   30.9034 H   0  0  0  0  0  0  0  0  0  0  0  0
  109.9968   66.7541   31.7389 H   0  0  0  0  0  0  0  0  0  0  0  0
  110.2586   70.9990   32.5042 H   0  0  0  0  0  0  0  0  0  0  0  0
  108.2845   69.6906   44.1469 H   0  0  0  0  0  0  0  0  0  0  0  0
  110.2793   66.2974   34.1752 H   0  0  0  0  0  0  0  0  0  0  0  0
  110.5411   70.5422   34.9407 H   0  0  0  0  0  0  0  0  0  0  0  0
  110.3440   69.0247   42.9063 H   0  0  0  0  0  0  0  0  0  0  0  0
  106.9370   65.5850   44.1142 H   0  0  0  0  0  0  0  0  0  0  0  0
  112.8027   66.0612   37.8235 H   0  0  0  0  0  0  0  0  0  0  0  0
  108.8707   67.2567   40.6707 H   0  0  0  0  0  0  0  0  0  0  0  0
  106.4480   68.0144   46.0288 H   0  0  0  0  0  0  0  0  0  0  0  0
  105.9876   69.1076   44.6799 H   0  0  0  0  0  0  0  0  0  0  0  0
  105.4340   67.3988   44.6799 H   0  0  0  0  0  0  0  0  0  0  0  0
  109.1209   63.9306   43.6950 H   0  0  0  0  0  0  0  0  0  0  0  0
  108.1782   64.1919   42.1884 H   0  0  0  0  0  0  0  0  0  0  0  0
  109.9577   64.4374   42.1884 H   0  0  0  0  0  0  0  0  0  0  0  0
  111.3894   66.2489   35.9389 H   0  0  0  0  0  0  0  0  0  0  0  0
  109.6096   66.3310   36.1843 H   0  0  0  0  0  0  0  0  0  0  0  0
  108.8147   67.3118   38.2821 H   0  0  0  0  0  0  0  0  0  0  0  0
  1  2  2  0
  1  3  1  0
  2  5  1  0
  3  6  2  0
  4  7  2  0
  4  9  1  0
  5 11  2  0
  6 11  1  0
  7 12  1  0
  8  9  2  0
  8 10  1  0
  9 18  1  0
 10 12  2  0
 10 19  1  0
 11 24  1  0
 12 23  1  0
 13 16  2  0
 13 17  1  0
 14 15  2  0
 14 21  1  0
 15 17  1  0
 15 23  1  0
 16 20  1  0
 16 21  1  0
 17 22  2  0
 20 24  1  0
  1 25  1  0
  2 26  1  0
  3 27  1  0
  4 28  1  0
  5 29  1  0
  6 30  1  0
  7 31  1  0
  8 32  1  0
 13 33  1  0
 14 34  1  0
 18 35  1  0
 18 36  1  0
 18 37  1  0
 19 38  1  0
 19 39  1  0
 19 40  1  0
 20 41  1  0
 20 42  1  0
 21 43  1  0
M  END
>  <Name>  (49) 
CHEMBL3623426

>  <Comment>  (49) 
 Schrodinger Suite 2021-4.

>  <s_m_entry_id>  (49) 
1202

>  <class_value>  (49) 
0

>  <s_m_Source_Path>  (49) 
C:\Users\vinicius\Desktop

>  <s_m_Source_File>  (49) 
Ligands_Saureus_o.sdf

>  <i_m_Source_File_Index>  (49) 
101

>  <r_lp_tautomer_probability>  (49) 
0.972255101557691

>  <r_epik_Ionization_Penalty>  (49) 
0.0091

>  <r_epik_State_Penalty>  (49) 
0.0247

>  <i_epik_Tot_Q>  (49) 
0

>  <i_f3d_flags>  (49) 
0

>  <s_m_job_name>  (49) 
Saureus_o

>  <FRED Chemgauss4 score>  (49) 
-13.278022

>  <Set>  (49) 
training

>  <HBA count>  (49) 
3

>  <HBD count>  (49) 
1

>  <ExactMolWt>  (49) 
321.1364934680005

>  <NumRotatableBounds>  (49) 
7

>  <FractionCsp3>  (49) 
0.15

>  <TPSA>  (49) 
51.32000000000001

>  <LogP_WildmanCrippen>  (49) 
4.363040000000003

>  <General_Cluster>  (49) 
1

>  <Biological_Cluster>  (49) 
2

>  <Physicochemical_Cluster>  (49) 
1

>  <Structural_Cluster>  (49) 
5

$$$$
CHEMBL3322675
     RDKit          3D

 48 51  0  0  0  0  0  0  0  0999 V2000
  111.3853   72.2707   34.0006 C   0  0  0  0  0  0  0  0  0  0  0  0
  112.0554   72.6505   35.1635 C   0  0  0  0  0  0  0  0  0  0  0  0
  110.7489   71.0311   33.9356 C   0  0  0  0  0  0  0  0  0  0  0  0
  112.0892   71.7908   36.2614 C   0  0  0  0  0  0  0  0  0  0  0  0
  110.7827   70.1714   35.0335 C   0  0  0  0  0  0  0  0  0  0  0  0
  109.0817   62.5929   43.6084 C   0  0  0  0  0  0  0  0  0  0  0  0
  108.3511   64.7790   43.0348 C   0  0  0  0  0  0  0  0  0  0  0  0
  109.0789   63.6491   42.7058 C   0  0  0  0  0  0  0  0  0  0  0  0
  108.3806   62.7035   44.8101 C   0  0  0  0  0  0  0  0  0  0  0  0
  111.4529   70.5512   36.1964 C   0  0  0  0  0  0  0  0  0  0  0  0
  107.6820   63.8854   45.0541 C   0  0  0  0  0  0  0  0  0  0  0  0
  107.0044   63.1123   47.2965 C   0  0  0  0  0  0  0  0  0  0  0  0
  109.8037   63.5646   41.4510 C   0  0  0  0  0  0  0  0  0  0  0  0
  110.1908   64.6139   40.6878 C   0  0  0  0  0  0  0  0  0  0  0  0
  110.9185   64.4770   39.4130 C   0  0  0  0  0  0  0  0  0  0  0  0
  108.2786   61.5547   45.7671 C   0  0  0  0  0  0  0  0  0  0  0  0
  108.0830   62.0534   47.1902 C   0  0  0  0  0  0  0  0  0  0  0  0
  111.9172   65.8941   37.5390 C   0  0  0  0  0  0  0  0  0  0  0  0
  110.9509   67.0480   39.0626 C   0  0  0  0  0  0  0  0  0  0  0  0
  111.9245   67.3814   37.9211 C   0  0  0  0  0  0  0  0  0  0  0  0
  111.4891   69.6258   37.3770 C   0  0  0  0  0  0  0  0  0  0  0  0
  107.6479   64.9196   44.1807 N   0  0  0  0  0  0  0  0  0  0  0  0
  106.9474   64.0100   46.2488 N   0  0  0  0  0  0  0  0  0  0  0  0
  111.2221   65.6518   38.7879 N   0  0  0  0  0  0  0  0  0  0  0  0
  106.2994   63.2080   48.3010 O   0  0  0  0  0  0  0  0  0  0  0  0
  111.2055   63.3608   38.9879 O   0  0  0  0  0  0  0  0  0  0  0  0
  111.4363   68.2885   36.9174 O   0  0  0  0  0  0  0  0  0  0  0  0
  111.3587   72.9487   33.1348 H   0  0  0  0  0  0  0  0  0  0  0  0
  112.5572   73.6280   35.2148 H   0  0  0  0  0  0  0  0  0  0  0  0
  110.2204   70.7316   33.0185 H   0  0  0  0  0  0  0  0  0  0  0  0
  112.6176   72.0904   37.1785 H   0  0  0  0  0  0  0  0  0  0  0  0
  110.2808   69.1939   34.9823 H   0  0  0  0  0  0  0  0  0  0  0  0
  109.6355   61.6712   43.3763 H   0  0  0  0  0  0  0  0  0  0  0  0
  108.3443   65.6147   42.3195 H   0  0  0  0  0  0  0  0  0  0  0  0
  110.0614   62.5588   41.0879 H   0  0  0  0  0  0  0  0  0  0  0  0
  109.9482   65.6275   41.0394 H   0  0  0  0  0  0  0  0  0  0  0  0
  107.4220   60.9250   45.4847 H   0  0  0  0  0  0  0  0  0  0  0  0
  109.2119   60.9742   45.7220 H   0  0  0  0  0  0  0  0  0  0  0  0
  109.0318   62.4807   47.5467 H   0  0  0  0  0  0  0  0  0  0  0  0
  107.7674   61.1955   47.8021 H   0  0  0  0  0  0  0  0  0  0  0  0
  111.3375   65.6539   36.6355 H   0  0  0  0  0  0  0  0  0  0  0  0
  112.8397   65.3572   37.2729 H   0  0  0  0  0  0  0  0  0  0  0  0
  111.2721   67.3923   40.0567 H   0  0  0  0  0  0  0  0  0  0  0  0
  109.9264   67.4475   39.0889 H   0  0  0  0  0  0  0  0  0  0  0  0
  112.8658   67.9156   38.1175 H   0  0  0  0  0  0  0  0  0  0  0  0
  112.4196   69.7850   37.9417 H   0  0  0  0  0  0  0  0  0  0  0  0
  110.6292   69.8271   38.0328 H   0  0  0  0  0  0  0  0  0  0  0  0
  106.3259   64.8253   46.3479 H   0  0  0  0  0  0  0  0  0  0  0  0
  1  2  2  0
  1  3  1  0
  2  4  1  0
  3  5  2  0
  4 10  2  0
  5 10  1  0
  6  8  2  0
  6  9  1  0
  7  8  1  0
  7 22  2  0
  8 13  1  0
  9 11  2  0
  9 16  1  0
 10 21  1  0
 11 22  1  0
 11 23  1  0
 12 17  1  0
 12 23  1  0
 12 25  2  0
 13 14  2  0
 14 15  1  0
 15 24  1  0
 15 26  2  0
 16 17  1  0
 18 20  1  0
 18 24  1  0
 19 20  1  0
 19 24  1  0
 20 27  1  0
 21 27  1  0
  1 28  1  0
  2 29  1  0
  3 30  1  0
  4 31  1  0
  5 32  1  0
  6 33  1  0
  7 34  1  0
 13 35  1  0
 14 36  1  0
 16 37  1  0
 16 38  1  0
 17 39  1  0
 17 40  1  0
 18 41  1  0
 18 42  1  0
 19 43  1  0
 19 44  1  0
 20 45  1  0
 21 46  1  0
 21 47  1  0
 23 48  1  0
M  END
>  <Name>  (50) 
CHEMBL3322675

>  <Comment>  (50) 
 Schrodinger Suite 2021-4.

>  <s_m_entry_id>  (50) 
1139

>  <class_value>  (50) 
1

>  <s_m_Source_Path>  (50) 
C:\Users\vinicius\Desktop

>  <s_m_Source_File>  (50) 
Ligands_Saureus_o.sdf

>  <i_m_Source_File_Index>  (50) 
53

>  <r_lp_tautomer_probability>  (50) 
1

>  <r_epik_Ionization_Penalty>  (50) 
0.0002

>  <r_epik_State_Penalty>  (50) 
0

>  <i_epik_Tot_Q>  (50) 
0

>  <i_f3d_flags>  (50) 
0

>  <s_m_job_name>  (50) 
Saureus_o

>  <FRED Chemgauss4 score>  (50) 
-12.715378

>  <Set>  (50) 
training

>  <HBA count>  (50) 
4

>  <HBD count>  (50) 
1

>  <ExactMolWt>  (50) 
363.1582915320006

>  <NumRotatableBounds>  (50) 
5

>  <FractionCsp3>  (50) 
0.2857142857142857

>  <TPSA>  (50) 
71.53

>  <LogP_WildmanCrippen>  (50) 
2.4071

>  <General_Cluster>  (50) 
1

>  <Biological_Cluster>  (50) 
1

>  <Physicochemical_Cluster>  (50) 
4

>  <Structural_Cluster>  (50) 
2

$$$$
CHEMBL3322723
     RDKit          3D

 44 47  0  0  0  0  0  0  0  0999 V2000
  109.9202   70.4371   31.4453 C   0  0  0  0  0  0  0  0  0  0  0  0
  109.9322   69.1212   30.9829 C   0  0  0  0  0  0  0  0  0  0  0  0
  109.8801   70.6946   32.8156 C   0  0  0  0  0  0  0  0  0  0  0  0
  109.9041   68.0627   31.8909 C   0  0  0  0  0  0  0  0  0  0  0  0
  109.8520   69.6361   33.7236 C   0  0  0  0  0  0  0  0  0  0  0  0
  109.4493   67.2616   40.3922 C   0  0  0  0  0  0  0  0  0  0  0  0
  111.6188   66.3558   40.7311 C   0  0  0  0  0  0  0  0  0  0  0  0
  110.5303   66.5423   39.8975 C   0  0  0  0  0  0  0  0  0  0  0  0
  109.8640   68.3201   33.2613 C   0  0  0  0  0  0  0  0  0  0  0  0
  109.4794   67.7512   41.6988 C   0  0  0  0  0  0  0  0  0  0  0  0
  110.6192   67.5060   42.4636 C   0  0  0  0  0  0  0  0  0  0  0  0
  109.6190   68.5898   44.4411 C   0  0  0  0  0  0  0  0  0  0  0  0
  110.5244   66.0161   38.5448 C   0  0  0  0  0  0  0  0  0  0  0  0
  111.6163   65.6494   37.8329 C   0  0  0  0  0  0  0  0  0  0  0  0
  111.5604   65.1281   36.4552 C   0  0  0  0  0  0  0  0  0  0  0  0
  108.3779   68.6117   42.2393 C   0  0  0  0  0  0  0  0  0  0  0  0
  108.2758   68.4721   43.7500 C   0  0  0  0  0  0  0  0  0  0  0  0
  110.4696   67.3093   35.6918 C   0  0  0  0  0  0  0  0  0  0  0  0
  110.8158   65.9351   34.1005 C   0  0  0  0  0  0  0  0  0  0  0  0
  109.8328   67.1168   34.2938 C   0  0  0  0  0  0  0  0  0  0  0  0
  111.6927   66.8257   41.9965 N   0  0  0  0  0  0  0  0  0  0  0  0
  110.6822   68.0115   43.7763 N   0  0  0  0  0  0  0  0  0  0  0  0
  111.0102   65.9728   35.5359 N   0  0  0  0  0  0  0  0  0  0  0  0
  109.7193   69.0864   45.5629 O   0  0  0  0  0  0  0  0  0  0  0  0
  111.9909   64.0047   36.2073 O   0  0  0  0  0  0  0  0  0  0  0  0
  109.9424   71.2719   30.7293 H   0  0  0  0  0  0  0  0  0  0  0  0
  109.9638   68.9182   29.9023 H   0  0  0  0  0  0  0  0  0  0  0  0
  109.8706   71.7324   33.1802 H   0  0  0  0  0  0  0  0  0  0  0  0
  109.9136   67.0249   31.5263 H   0  0  0  0  0  0  0  0  0  0  0  0
  109.8204   69.8392   34.8042 H   0  0  0  0  0  0  0  0  0  0  0  0
  108.5714   67.4448   39.7552 H   0  0  0  0  0  0  0  0  0  0  0  0
  112.4773   65.7901   40.3399 H   0  0  0  0  0  0  0  0  0  0  0  0
  109.5460   65.9054   38.0544 H   0  0  0  0  0  0  0  0  0  0  0  0
  112.6025   65.7461   38.3105 H   0  0  0  0  0  0  0  0  0  0  0  0
  108.5843   69.6624   41.9873 H   0  0  0  0  0  0  0  0  0  0  0  0
  107.4266   68.2902   41.7903 H   0  0  0  0  0  0  0  0  0  0  0  0
  107.8450   67.4874   43.9839 H   0  0  0  0  0  0  0  0  0  0  0  0
  107.6409   69.2920   44.1169 H   0  0  0  0  0  0  0  0  0  0  0  0
  111.2231   68.1085   35.7501 H   0  0  0  0  0  0  0  0  0  0  0  0
  109.8763   67.6024   36.5705 H   0  0  0  0  0  0  0  0  0  0  0  0
  110.3573   65.0102   33.7205 H   0  0  0  0  0  0  0  0  0  0  0  0
  111.6575   65.9828   33.3939 H   0  0  0  0  0  0  0  0  0  0  0  0
  108.7474   66.9942   34.1643 H   0  0  0  0  0  0  0  0  0  0  0  0
  111.5816   67.9455   44.2740 H   0  0  0  0  0  0  0  0  0  0  0  0
  1  2  2  0
  1  3  1  0
  2  4  1  0
  3  5  2  0
  4  9  2  0
  5  9  1  0
  6  8  2  0
  6 10  1  0
  7  8  1  0
  7 21  2  0
  8 13  1  0
  9 20  1  0
 10 11  2  0
 10 16  1  0
 11 21  1  0
 11 22  1  0
 12 17  1  0
 12 22  1  0
 12 24  2  0
 13 14  2  0
 14 15  1  0
 15 23  1  0
 15 25  2  0
 16 17  1  0
 18 20  1  0
 18 23  1  0
 19 20  1  0
 19 23  1  0
  1 26  1  0
  2 27  1  0
  3 28  1  0
  4 29  1  0
  5 30  1  0
  6 31  1  0
  7 32  1  0
 13 33  1  0
 14 34  1  0
 16 35  1  0
 16 36  1  0
 17 37  1  0
 17 38  1  0
 18 39  1  0
 18 40  1  0
 19 41  1  0
 19 42  1  0
 20 43  1  0
 22 44  1  0
M  END
>  <Name>  (51) 
CHEMBL3322723

>  <Comment>  (51) 
 Schrodinger Suite 2021-4.

>  <s_m_entry_id>  (51) 
1171

>  <class_value>  (51) 
1

>  <s_m_Source_Path>  (51) 
C:\Users\vinicius\Desktop

>  <s_m_Source_File>  (51) 
Ligands_Saureus_o.sdf

>  <i_m_Source_File_Index>  (51) 
77

>  <r_lp_tautomer_probability>  (51) 
1

>  <r_epik_Ionization_Penalty>  (51) 
0.0002

>  <r_epik_State_Penalty>  (51) 
0

>  <i_epik_Tot_Q>  (51) 
0

>  <i_f3d_flags>  (51) 
0

>  <s_m_job_name>  (51) 
Saureus_o

>  <FRED Chemgauss4 score>  (51) 
-12.608802

>  <Set>  (51) 
training

>  <HBA count>  (51) 
3

>  <HBD count>  (51) 
1

>  <ExactMolWt>  (51) 
333.1477268480005

>  <NumRotatableBounds>  (51) 
3

>  <FractionCsp3>  (51) 
0.25

>  <TPSA>  (51) 
62.300000000000004

>  <LogP_WildmanCrippen>  (51) 
2.605500000000001

>  <General_Cluster>  (51) 
1

>  <Biological_Cluster>  (51) 
1

>  <Physicochemical_Cluster>  (51) 
2

>  <Structural_Cluster>  (51) 
3

$$$$
CHEMBL111251
     RDKit          3D

 42 44  0  0  0  0  0  0  0  0999 V2000
  112.2771   72.7379   35.5346 C   0  0  0  0  0  0  0  0  0  0  0  0
  111.8411   73.0316   34.2441 C   0  0  0  0  0  0  0  0  0  0  0  0
  111.6482   65.0268   41.0548 C   0  0  0  0  0  0  0  0  0  0  0  0
  112.0428   71.4795   36.1009 C   0  0  0  0  0  0  0  0  0  0  0  0
  112.0070   64.8926   39.7182 C   0  0  0  0  0  0  0  0  0  0  0  0
  111.1590   72.0805   33.4798 C   0  0  0  0  0  0  0  0  0  0  0  0
  110.9565   69.1619   35.5979 C   0  0  0  0  0  0  0  0  0  0  0  0
  110.5572   65.8258   41.3564 C   0  0  0  0  0  0  0  0  0  0  0  0
  110.1995   66.3275   39.1431 C   0  0  0  0  0  0  0  0  0  0  0  0
  111.3571   70.5046   35.3493 C   0  0  0  0  0  0  0  0  0  0  0  0
  111.2740   65.5522   38.7378 C   0  0  0  0  0  0  0  0  0  0  0  0
  110.9319   70.8269   34.0588 C   0  0  0  0  0  0  0  0  0  0  0  0
  110.3076   68.7038   34.4745 C   0  0  0  0  0  0  0  0  0  0  0  0
  111.6290   65.4306   37.3129 C   0  0  0  0  0  0  0  0  0  0  0  0
  110.7956   65.6942   36.2955 C   0  0  0  0  0  0  0  0  0  0  0  0
  111.2647   65.5009   34.8916 C   0  0  0  0  0  0  0  0  0  0  0  0
  109.7072   69.6285   32.2316 C   0  0  0  0  0  0  0  0  0  0  0  0
  111.0772   66.1924   32.5330 C   0  0  0  0  0  0  0  0  0  0  0  0
  109.6864   67.3643   34.2026 C   0  0  0  0  0  0  0  0  0  0  0  0
  109.8209   66.4819   40.4317 N   0  0  0  0  0  0  0  0  0  0  0  0
  110.2980   69.7151   33.5516 N   0  0  0  0  0  0  0  0  0  0  0  0
  110.6928   66.3396   33.9309 N   0  0  0  0  0  0  0  0  0  0  0  0
  112.0912   64.6234   34.6381 O   0  0  0  0  0  0  0  0  0  0  0  0
  112.8118   73.5041   36.1152 H   0  0  0  0  0  0  0  0  0  0  0  0
  112.0368   74.0276   33.8201 H   0  0  0  0  0  0  0  0  0  0  0  0
  112.2128   64.5147   41.8479 H   0  0  0  0  0  0  0  0  0  0  0  0
  112.3897   71.2544   37.1202 H   0  0  0  0  0  0  0  0  0  0  0  0
  112.8672   64.2672   39.4375 H   0  0  0  0  0  0  0  0  0  0  0  0
  110.8135   72.3090   32.4608 H   0  0  0  0  0  0  0  0  0  0  0  0
  111.1338   68.5925   36.5222 H   0  0  0  0  0  0  0  0  0  0  0  0
  110.2725   65.9329   42.4135 H   0  0  0  0  0  0  0  0  0  0  0  0
  109.6186   66.8496   38.3685 H   0  0  0  0  0  0  0  0  0  0  0  0
  112.6489   65.1005   37.0663 H   0  0  0  0  0  0  0  0  0  0  0  0
  109.7739   66.0502   36.4942 H   0  0  0  0  0  0  0  0  0  0  0  0
  108.6228   69.4695   32.3250 H   0  0  0  0  0  0  0  0  0  0  0  0
  109.8949   70.5638   31.6838 H   0  0  0  0  0  0  0  0  0  0  0  0
  110.1554   68.7865   31.6838 H   0  0  0  0  0  0  0  0  0  0  0  0
  112.1030   65.7996   32.4742 H   0  0  0  0  0  0  0  0  0  0  0  0
  110.3882   65.4945   32.0348 H   0  0  0  0  0  0  0  0  0  0  0  0
  111.0306   67.1720   32.0348 H   0  0  0  0  0  0  0  0  0  0  0  0
  109.0983   67.0605   35.0812 H   0  0  0  0  0  0  0  0  0  0  0  0
  109.0490   67.4597   33.3112 H   0  0  0  0  0  0  0  0  0  0  0  0
  1  2  2  0
  1  4  1  0
  2  6  1  0
  3  5  2  0
  3  8  1  0
  4 10  2  0
  5 11  1  0
  6 12  2  0
  7 10  1  0
  7 13  2  0
  8 20  2  0
  9 11  2  0
  9 20  1  0
 10 12  1  0
 11 14  1  0
 12 21  1  0
 13 19  1  0
 13 21  1  0
 14 15  2  0
 15 16  1  0
 16 22  1  0
 16 23  2  0
 17 21  1  0
 18 22  1  0
 19 22  1  0
  1 24  1  0
  2 25  1  0
  3 26  1  0
  4 27  1  0
  5 28  1  0
  6 29  1  0
  7 30  1  0
  8 31  1  0
  9 32  1  0
 14 33  1  0
 15 34  1  0
 17 35  1  0
 17 36  1  0
 17 37  1  0
 18 38  1  0
 18 39  1  0
 18 40  1  0
 19 41  1  0
 19 42  1  0
M  END
>  <Name>  (52) 
CHEMBL111251

>  <Comment>  (52) 
 Schrodinger Suite 2021-4.

>  <s_m_entry_id>  (52) 
1268

>  <class_value>  (52) 
0

>  <s_m_Source_Path>  (52) 
C:\Users\vinicius\Desktop

>  <s_m_Source_File>  (52) 
Ligands_Saureus_o.sdf

>  <i_m_Source_File_Index>  (52) 
158

>  <r_epik_Ionization_Penalty>  (52) 
0.0009

>  <r_epik_State_Penalty>  (52) 
0.0006

>  <i_epik_Tot_Q>  (52) 
0

>  <i_f3d_flags>  (52) 
0

>  <s_m_job_name>  (52) 
Saureus_o

>  <FRED Chemgauss4 score>  (52) 
-16.008823

>  <Set>  (52) 
training

>  <HBA count>  (52) 
3

>  <HBD count>  (52) 
0

>  <ExactMolWt>  (52) 
305.1528122280005

>  <NumRotatableBounds>  (52) 
6

>  <FractionCsp3>  (52) 
0.15789473684210525

>  <TPSA>  (52) 
38.13

>  <LogP_WildmanCrippen>  (52) 
3.2451000000000016

>  <General_Cluster>  (52) 
2

>  <Biological_Cluster>  (52) 
2

>  <Physicochemical_Cluster>  (52) 
3

>  <Structural_Cluster>  (52) 
3

$$$$
CHEMBL3676398
     RDKit          3D

 46 47  0  0  0  0  0  0  0  0999 V2000
  108.6334   65.0162   42.9268 C   0  0  0  0  0  0  0  0  0  0  0  0
  107.3552   66.7829   41.8867 C   0  0  0  0  0  0  0  0  0  0  0  0
  107.6913   64.9384   43.9524 C   0  0  0  0  0  0  0  0  0  0  0  0
  106.4130   66.7051   42.9123 C   0  0  0  0  0  0  0  0  0  0  0  0
  108.4654   65.9386   41.8939 C   0  0  0  0  0  0  0  0  0  0  0  0
  106.5811   65.7828   43.9452 C   0  0  0  0  0  0  0  0  0  0  0  0
  111.5002   66.1157   35.7453 C   0  0  0  0  0  0  0  0  0  0  0  0
  111.4490   64.6060   39.0469 C   0  0  0  0  0  0  0  0  0  0  0  0
  111.2106   67.1108   39.1906 C   0  0  0  0  0  0  0  0  0  0  0  0
  112.2497   64.7781   37.7576 C   0  0  0  0  0  0  0  0  0  0  0  0
  112.0152   67.2378   37.8996 C   0  0  0  0  0  0  0  0  0  0  0  0
  111.5880   65.8348   39.9587 C   0  0  0  0  0  0  0  0  0  0  0  0
  108.9189   66.9385   34.8227 C   0  0  0  0  0  0  0  0  0  0  0  0
  110.0659   69.0387   34.0594 C   0  0  0  0  0  0  0  0  0  0  0  0
  110.7272   66.8244   33.0757 C   0  0  0  0  0  0  0  0  0  0  0  0
  110.7290   65.6811   41.2115 C   0  0  0  0  0  0  0  0  0  0  0  0
  110.2317   67.5447   34.3289 C   0  0  0  0  0  0  0  0  0  0  0  0
  111.8904   66.0302   37.0846 N   0  0  0  0  0  0  0  0  0  0  0  0
  111.4155   65.1525   34.9855 O   0  0  0  0  0  0  0  0  0  0  0  0
  109.3929   66.0152   40.8842 O   0  0  0  0  0  0  0  0  0  0  0  0
  111.2168   67.3987   35.3583 O   0  0  0  0  0  0  0  0  0  0  0  0
  105.6764   65.7080   44.9301 F   0  0  0  0  0  0  0  0  0  0  0  0
  109.5089   64.3502   42.9325 H   0  0  0  0  0  0  0  0  0  0  0  0
  107.2227   67.5102   41.0721 H   0  0  0  0  0  0  0  0  0  0  0  0
  107.8238   64.2111   44.7669 H   0  0  0  0  0  0  0  0  0  0  0  0
  105.5375   67.3710   42.9066 H   0  0  0  0  0  0  0  0  0  0  0  0
  110.3878   64.4660   38.7936 H   0  0  0  0  0  0  0  0  0  0  0  0
  111.8399   63.7292   39.5839 H   0  0  0  0  0  0  0  0  0  0  0  0
  111.4128   67.9852   39.8266 H   0  0  0  0  0  0  0  0  0  0  0  0
  110.1429   67.0576   38.9312 H   0  0  0  0  0  0  0  0  0  0  0  0
  113.3228   64.7935   37.9989 H   0  0  0  0  0  0  0  0  0  0  0  0
  112.0203   63.9382   37.0854 H   0  0  0  0  0  0  0  0  0  0  0  0
  111.6420   68.0992   37.3262 H   0  0  0  0  0  0  0  0  0  0  0  0
  113.0749   67.3781   38.1590 H   0  0  0  0  0  0  0  0  0  0  0  0
  112.6377   65.9165   40.2773 H   0  0  0  0  0  0  0  0  0  0  0  0
  108.9082   66.9335   35.9226 H   0  0  0  0  0  0  0  0  0  0  0  0
  108.0752   67.5382   34.4505 H   0  0  0  0  0  0  0  0  0  0  0  0
  108.8283   65.9074   34.4505 H   0  0  0  0  0  0  0  0  0  0  0  0
  110.0059   69.5793   35.0155 H   0  0  0  0  0  0  0  0  0  0  0  0
  110.9288   69.4055   33.4843 H   0  0  0  0  0  0  0  0  0  0  0  0
  109.1435   69.2074   33.4843 H   0  0  0  0  0  0  0  0  0  0  0  0
  111.3282   65.9508   33.3684 H   0  0  0  0  0  0  0  0  0  0  0  0
  109.8651   66.4929   32.4783 H   0  0  0  0  0  0  0  0  0  0  0  0
  111.3450   67.5110   32.4783 H   0  0  0  0  0  0  0  0  0  0  0  0
  110.7748   64.6413   41.5675 H   0  0  0  0  0  0  0  0  0  0  0  0
  111.0996   66.3453   42.0062 H   0  0  0  0  0  0  0  0  0  0  0  0
  1  3  2  0
  1  5  1  0
  2  4  1  0
  2  5  2  0
  3  6  1  0
  4  6  2  0
  5 20  1  0
  6 22  1  0
  7 18  1  0
  7 19  2  0
  7 21  1  0
  8 10  1  0
  8 12  1  0
  9 11  1  0
  9 12  1  0
 10 18  1  0
 11 18  1  0
 12 16  1  0
 13 17  1  0
 14 17  1  0
 15 17  1  0
 16 20  1  0
 17 21  1  0
  1 23  1  0
  2 24  1  0
  3 25  1  0
  4 26  1  0
  8 27  1  0
  8 28  1  0
  9 29  1  0
  9 30  1  0
 10 31  1  0
 10 32  1  0
 11 33  1  0
 11 34  1  0
 12 35  1  0
 13 36  1  0
 13 37  1  0
 13 38  1  0
 14 39  1  0
 14 40  1  0
 14 41  1  0
 15 42  1  0
 15 43  1  0
 15 44  1  0
 16 45  1  0
 16 46  1  0
M  END
>  <Name>  (53) 
CHEMBL3676398

>  <Comment>  (53) 
 Schrodinger Suite 2021-4.

>  <s_m_entry_id>  (53) 
1147

>  <class_value>  (53) 
1

>  <s_m_Source_Path>  (53) 
C:\Users\vinicius\Desktop

>  <s_m_Source_File>  (53) 
Ligands_Saureus_o.sdf

>  <i_m_Source_File_Index>  (53) 
58

>  <r_lp_tautomer_probability>  (53) 
1

>  <r_epik_Ionization_Penalty>  (53) 
0

>  <r_epik_State_Penalty>  (53) 
0

>  <i_epik_Tot_Q>  (53) 
0

>  <i_f3d_flags>  (53) 
0

>  <s_m_job_name>  (53) 
Saureus_o

>  <FRED Chemgauss4 score>  (53) 
-11.884119

>  <Set>  (53) 
training

>  <HBA count>  (53) 
3

>  <HBD count>  (53) 
0

>  <ExactMolWt>  (53) 
309.1740218480007

>  <NumRotatableBounds>  (53) 
3

>  <FractionCsp3>  (53) 
0.5882352941176471

>  <TPSA>  (53) 
38.77

>  <LogP_WildmanCrippen>  (53) 
3.851600000000003

>  <General_Cluster>  (53) 
1

>  <Biological_Cluster>  (53) 
1

>  <Physicochemical_Cluster>  (53) 
2

>  <Structural_Cluster>  (53) 
3

$$$$
CHEMBL3623432
     RDKit          3D

 40 42  0  0  0  0  0  0  0  0999 V2000
  106.0713   63.2787   44.9661 C   0  0  0  0  0  0  0  0  0  0  0  0
  107.4617   63.2052   45.0488 C   0  0  0  0  0  0  0  0  0  0  0  0
  105.4681   63.8380   43.8396 C   0  0  0  0  0  0  0  0  0  0  0  0
  110.7224   69.9027   36.0816 C   0  0  0  0  0  0  0  0  0  0  0  0
  108.2490   63.6911   44.0049 C   0  0  0  0  0  0  0  0  0  0  0  0
  106.2554   64.3240   42.7958 C   0  0  0  0  0  0  0  0  0  0  0  0
  111.5041   69.0733   36.8858 C   0  0  0  0  0  0  0  0  0  0  0  0
  110.0197   69.3670   35.0023 C   0  0  0  0  0  0  0  0  0  0  0  0
  107.6459   64.2505   42.8784 C   0  0  0  0  0  0  0  0  0  0  0  0
  111.5831   67.7081   36.6106 C   0  0  0  0  0  0  0  0  0  0  0  0
  110.0987   68.0018   34.7272 C   0  0  0  0  0  0  0  0  0  0  0  0
  110.8804   67.1723   35.5313 C   0  0  0  0  0  0  0  0  0  0  0  0
  111.0348   64.3455   39.8754 C   0  0  0  0  0  0  0  0  0  0  0  0
  111.1813   67.0982   39.4822 C   0  0  0  0  0  0  0  0  0  0  0  0
  111.7508   66.3629   38.5168 C   0  0  0  0  0  0  0  0  0  0  0  0
  110.4992   65.1934   40.7761 C   0  0  0  0  0  0  0  0  0  0  0  0
  111.7083   64.8847   38.6636 C   0  0  0  0  0  0  0  0  0  0  0  0
  109.9670   67.5054   41.5955 C   0  0  0  0  0  0  0  0  0  0  0  0
  109.8227   64.6276   41.9979 C   0  0  0  0  0  0  0  0  0  0  0  0
  110.5524   66.5908   40.6135 N   0  0  0  0  0  0  0  0  0  0  0  0
  112.2039   64.1371   37.8281 O   0  0  0  0  0  0  0  0  0  0  0  0
  112.3587   66.9233   37.4201 O   0  0  0  0  0  0  0  0  0  0  0  0
  108.4212   64.7309   41.8503 O   0  0  0  0  0  0  0  0  0  0  0  0
  109.2034   67.4036   33.3737 Cl  0  0  0  0  0  0  0  0  0  0  0  0
  111.0004   65.4713   35.2173 Cl  0  0  0  0  0  0  0  0  0  0  0  0
  105.4504   62.8956   45.7893 H   0  0  0  0  0  0  0  0  0  0  0  0
  107.9373   62.7641   45.9372 H   0  0  0  0  0  0  0  0  0  0  0  0
  104.3716   63.8958   43.7744 H   0  0  0  0  0  0  0  0  0  0  0  0
  110.6601   70.9793   36.2986 H   0  0  0  0  0  0  0  0  0  0  0  0
  109.3455   63.6331   44.0700 H   0  0  0  0  0  0  0  0  0  0  0  0
  105.7797   64.7652   41.9075 H   0  0  0  0  0  0  0  0  0  0  0  0
  112.0582   69.4958   37.7370 H   0  0  0  0  0  0  0  0  0  0  0  0
  109.4033   70.0211   34.3681 H   0  0  0  0  0  0  0  0  0  0  0  0
  110.9741   63.2590   40.0359 H   0  0  0  0  0  0  0  0  0  0  0  0
  111.2143   68.1920   39.3702 H   0  0  0  0  0  0  0  0  0  0  0  0
  110.1954   67.1486   42.6106 H   0  0  0  0  0  0  0  0  0  0  0  0
  110.3894   68.5116   41.4568 H   0  0  0  0  0  0  0  0  0  0  0  0
  108.8764   67.5432   41.4568 H   0  0  0  0  0  0  0  0  0  0  0  0
  110.1021   63.5702   42.1152 H   0  0  0  0  0  0  0  0  0  0  0  0
  110.1404   65.1915   42.8873 H   0  0  0  0  0  0  0  0  0  0  0  0
  1  2  2  0
  1  3  1  0
  2  5  1  0
  3  6  2  0
  4  7  2  0
  4  8  1  0
  5  9  2  0
  6  9  1  0
  7 10  1  0
  8 11  2  0
  9 23  1  0
 10 12  2  0
 10 22  1  0
 11 12  1  0
 11 24  1  0
 12 25  1  0
 13 16  2  0
 13 17  1  0
 14 15  2  0
 14 20  1  0
 15 17  1  0
 15 22  1  0
 16 19  1  0
 16 20  1  0
 17 21  2  0
 18 20  1  0
 19 23  1  0
  1 26  1  0
  2 27  1  0
  3 28  1  0
  4 29  1  0
  5 30  1  0
  6 31  1  0
  7 32  1  0
  8 33  1  0
 13 34  1  0
 14 35  1  0
 18 36  1  0
 18 37  1  0
 18 38  1  0
 19 39  1  0
 19 40  1  0
M  END
>  <Name>  (54) 
CHEMBL3623432

>  <Comment>  (54) 
 Schrodinger Suite 2021-4.

>  <s_m_entry_id>  (54) 
1138

>  <class_value>  (54) 
1

>  <s_m_Source_Path>  (54) 
C:\Users\vinicius\Desktop

>  <s_m_Source_File>  (54) 
Ligands_Saureus_o.sdf

>  <i_m_Source_File_Index>  (54) 
52

>  <r_lp_tautomer_probability>  (54) 
1

>  <r_epik_Ionization_Penalty>  (54) 
0

>  <r_epik_State_Penalty>  (54) 
0

>  <i_epik_Tot_Q>  (54) 
0

>  <i_f3d_flags>  (54) 
0

>  <s_m_job_name>  (54) 
Saureus_o

>  <FRED Chemgauss4 score>  (54) 
-12.055362

>  <Set>  (54) 
training

>  <HBA count>  (54) 
4

>  <HBD count>  (54) 
0

>  <ExactMolWt>  (54) 
375.04289870000036

>  <NumRotatableBounds>  (54) 
6

>  <FractionCsp3>  (54) 
0.10526315789473684

>  <TPSA>  (54) 
40.46

>  <LogP_WildmanCrippen>  (54) 
5.063400000000003

>  <General_Cluster>  (54) 
1

>  <Biological_Cluster>  (54) 
1

>  <Physicochemical_Cluster>  (54) 
3

>  <Structural_Cluster>  (54) 
5

$$$$
CHEMBL45433
     RDKit          3D

 52 54  0  0  0  0  0  0  0  0999 V2000
  112.0464   72.9979   35.1810 C   0  0  0  0  0  0  0  0  0  0  0  0
  111.6416   73.0746   33.8498 C   0  0  0  0  0  0  0  0  0  0  0  0
  111.8473   71.8286   35.9240 C   0  0  0  0  0  0  0  0  0  0  0  0
  111.0265   71.9890   33.2198 C   0  0  0  0  0  0  0  0  0  0  0  0
  110.8780   69.4133   35.7475 C   0  0  0  0  0  0  0  0  0  0  0  0
  111.9709   65.8621   40.4913 C   0  0  0  0  0  0  0  0  0  0  0  0
  110.1242   67.1074   39.6571 C   0  0  0  0  0  0  0  0  0  0  0  0
  111.2291   70.7211   35.3101 C   0  0  0  0  0  0  0  0  0  0  0  0
  111.2441   66.3322   39.4030 C   0  0  0  0  0  0  0  0  0  0  0  0
  111.5613   66.1773   41.7821 C   0  0  0  0  0  0  0  0  0  0  0  0
  110.8338   70.8266   33.9749 C   0  0  0  0  0  0  0  0  0  0  0  0
  110.2870   68.7625   34.6891 C   0  0  0  0  0  0  0  0  0  0  0  0
  110.4273   66.9597   41.9297 C   0  0  0  0  0  0  0  0  0  0  0  0
  111.6513   66.0159   38.0227 C   0  0  0  0  0  0  0  0  0  0  0  0
  110.8418   66.0851   36.9553 C   0  0  0  0  0  0  0  0  0  0  0  0
  111.3653   65.7065   35.6097 C   0  0  0  0  0  0  0  0  0  0  0  0
  108.9024   68.0516   43.6050 C   0  0  0  0  0  0  0  0  0  0  0  0
  112.3425   65.6706   42.9465 C   0  0  0  0  0  0  0  0  0  0  0  0
  108.7919   68.1624   45.1049 C   0  0  0  0  0  0  0  0  0  0  0  0
  109.7229   69.3123   32.3174 C   0  0  0  0  0  0  0  0  0  0  0  0
  111.2273   66.0282   33.1696 C   0  0  0  0  0  0  0  0  0  0  0  0
  109.7328   67.3696   34.6059 C   0  0  0  0  0  0  0  0  0  0  0  0
  109.6955   67.4344   40.8968 N   0  0  0  0  0  0  0  0  0  0  0  0
  110.2652   69.6229   33.6244 N   0  0  0  0  0  0  0  0  0  0  0  0
  110.0066   67.2835   43.2271 N   0  0  0  0  0  0  0  0  0  0  0  0
  110.7905   66.3644   34.5186 N   0  0  0  0  0  0  0  0  0  0  0  0
  112.2365   64.8409   35.5134 O   0  0  0  0  0  0  0  0  0  0  0  0
  108.0817   68.5952   42.8728 O   0  0  0  0  0  0  0  0  0  0  0  0
  112.5281   73.8666   35.6535 H   0  0  0  0  0  0  0  0  0  0  0  0
  111.8088   74.0041   33.2859 H   0  0  0  0  0  0  0  0  0  0  0  0
  112.1695   71.7748   36.9744 H   0  0  0  0  0  0  0  0  0  0  0  0
  110.7057   72.0462   32.1692 H   0  0  0  0  0  0  0  0  0  0  0  0
  111.0485   68.9974   36.7515 H   0  0  0  0  0  0  0  0  0  0  0  0
  112.8663   65.2434   40.3317 H   0  0  0  0  0  0  0  0  0  0  0  0
  109.5484   67.4798   38.7970 H   0  0  0  0  0  0  0  0  0  0  0  0
  112.6920   65.7010   37.8559 H   0  0  0  0  0  0  0  0  0  0  0  0
  109.7999   66.4184   37.0708 H   0  0  0  0  0  0  0  0  0  0  0  0
  111.8551   65.9867   43.8806 H   0  0  0  0  0  0  0  0  0  0  0  0
  112.3856   64.5721   42.9090 H   0  0  0  0  0  0  0  0  0  0  0  0
  113.3631   66.0791   42.9090 H   0  0  0  0  0  0  0  0  0  0  0  0
  109.4934   67.4590   45.5772 H   0  0  0  0  0  0  0  0  0  0  0  0
  109.0368   69.1887   45.4158 H   0  0  0  0  0  0  0  0  0  0  0  0
  107.7649   67.9203   45.4158 H   0  0  0  0  0  0  0  0  0  0  0  0
  108.7738   68.7687   32.4340 H   0  0  0  0  0  0  0  0  0  0  0  0
  109.5452   70.2456   31.7629 H   0  0  0  0  0  0  0  0  0  0  0  0
  110.4380   68.6868   31.7629 H   0  0  0  0  0  0  0  0  0  0  0  0
  112.0980   65.3580   33.2225 H   0  0  0  0  0  0  0  0  0  0  0  0
  110.4090   65.5247   32.6340 H   0  0  0  0  0  0  0  0  0  0  0  0
  111.5046   66.9481   32.6340 H   0  0  0  0  0  0  0  0  0  0  0  0
  109.1293   67.1731   35.5043 H   0  0  0  0  0  0  0  0  0  0  0  0
  109.1220   67.3006   33.6937 H   0  0  0  0  0  0  0  0  0  0  0  0
  110.5816   66.9096   43.9955 H   0  0  0  0  0  0  0  0  0  0  0  0
  1  2  2  0
  1  3  1  0
  2  4  1  0
  3  8  2  0
  4 11  2  0
  5  8  1  0
  5 12  2  0
  6  9  2  0
  6 10  1  0
  7  9  1  0
  7 23  2  0
  8 11  1  0
  9 14  1  0
 10 13  2  0
 10 18  1  0
 11 24  1  0
 12 22  1  0
 12 24  1  0
 13 23  1  0
 13 25  1  0
 14 15  2  0
 15 16  1  0
 16 26  1  0
 16 27  2  0
 17 19  1  0
 17 25  1  0
 17 28  2  0
 20 24  1  0
 21 26  1  0
 22 26  1  0
  1 29  1  0
  2 30  1  0
  3 31  1  0
  4 32  1  0
  5 33  1  0
  6 34  1  0
  7 35  1  0
 14 36  1  0
 15 37  1  0
 18 38  1  0
 18 39  1  0
 18 40  1  0
 19 41  1  0
 19 42  1  0
 19 43  1  0
 20 44  1  0
 20 45  1  0
 20 46  1  0
 21 47  1  0
 21 48  1  0
 21 49  1  0
 22 50  1  0
 22 51  1  0
 25 52  1  0
M  END
>  <Name>  (55) 
CHEMBL45433

>  <Comment>  (55) 
 Schrodinger Suite 2021-4.

>  <s_m_entry_id>  (55) 
1193

>  <class_value>  (55) 
1

>  <s_m_Source_Path>  (55) 
C:\Users\vinicius\Desktop

>  <s_m_Source_File>  (55) 
Ligands_Saureus_o.sdf

>  <i_m_Source_File_Index>  (55) 
94

>  <r_lp_tautomer_probability>  (55) 
1

>  <r_epik_Ionization_Penalty>  (55) 
0.0003

>  <r_epik_State_Penalty>  (55) 
0

>  <i_epik_Tot_Q>  (55) 
0

>  <i_f3d_flags>  (55) 
0

>  <s_m_job_name>  (55) 
Saureus_o

>  <FRED Chemgauss4 score>  (55) 
-15.500001

>  <Set>  (55) 
training

>  <HBA count>  (55) 
4

>  <HBD count>  (55) 
1

>  <ExactMolWt>  (55) 
376.1899260080007

>  <NumRotatableBounds>  (55) 
9

>  <FractionCsp3>  (55) 
0.22727272727272727

>  <TPSA>  (55) 
67.23

>  <LogP_WildmanCrippen>  (55) 
3.5119200000000026

>  <General_Cluster>  (55) 
1

>  <Biological_Cluster>  (55) 
1

>  <Physicochemical_Cluster>  (55) 
1

>  <Structural_Cluster>  (55) 
2

$$$$
CHEMBL302497
     RDKit          3D

 55 59  0  0  0  0  0  0  0  0999 V2000
  111.2450   65.6886   32.6642 C   0  0  0  0  0  0  0  0  0  0  0  0
  110.7043   66.9536   32.4439 C   0  0  0  0  0  0  0  0  0  0  0  0
  111.4132   65.1980   33.9640 C   0  0  0  0  0  0  0  0  0  0  0  0
  110.3851   67.6608   41.8522 C   0  0  0  0  0  0  0  0  0  0  0  0
  108.1459   66.7882   41.6040 C   0  0  0  0  0  0  0  0  0  0  0  0
  111.6611   70.6252   36.1877 C   0  0  0  0  0  0  0  0  0  0  0  0
  110.0863   70.7988   34.3637 C   0  0  0  0  0  0  0  0  0  0  0  0
  110.3148   67.7669   33.5117 C   0  0  0  0  0  0  0  0  0  0  0  0
  109.8997   68.6698   42.6840 C   0  0  0  0  0  0  0  0  0  0  0  0
  107.6605   67.7972   42.4358 C   0  0  0  0  0  0  0  0  0  0  0  0
  112.4531   71.6102   35.5978 C   0  0  0  0  0  0  0  0  0  0  0  0
  110.8783   71.7839   33.7737 C   0  0  0  0  0  0  0  0  0  0  0  0
  111.0291   65.9993   35.0580 C   0  0  0  0  0  0  0  0  0  0  0  0
  109.5082   66.7200   41.3122 C   0  0  0  0  0  0  0  0  0  0  0  0
  111.0523   65.8344   36.4696 C   0  0  0  0  0  0  0  0  0  0  0  0
  110.4777   70.2194   35.5706 C   0  0  0  0  0  0  0  0  0  0  0  0
  110.4877   67.2652   34.8069 C   0  0  0  0  0  0  0  0  0  0  0  0
  112.0617   72.1896   34.3908 C   0  0  0  0  0  0  0  0  0  0  0  0
  108.5374   68.7380   42.9759 C   0  0  0  0  0  0  0  0  0  0  0  0
  110.5301   66.9797   37.0325 C   0  0  0  0  0  0  0  0  0  0  0  0
  110.0198   65.6559   40.4352 C   0  0  0  0  0  0  0  0  0  0  0  0
  111.5071   64.6966   37.3135 C   0  0  0  0  0  0  0  0  0  0  0  0
  110.3645   67.2608   38.4823 C   0  0  0  0  0  0  0  0  0  0  0  0
  111.7750   65.1847   38.7475 C   0  0  0  0  0  0  0  0  0  0  0  0
  106.6599   69.7331   44.0439 C   0  0  0  0  0  0  0  0  0  0  0  0
  109.6228   69.1572   36.2073 C   0  0  0  0  0  0  0  0  0  0  0  0
  110.1950   67.8396   36.0261 N   0  0  0  0  0  0  0  0  0  0  0  0
  110.6712   66.0288   39.2534 N   0  0  0  0  0  0  0  0  0  0  0  0
  109.8388   64.5004   40.8169 O   0  0  0  0  0  0  0  0  0  0  0  0
  112.8340   73.1517   33.8160 O   0  0  0  0  0  0  0  0  0  0  0  0
  108.0634   69.7225   43.7873 O   0  0  0  0  0  0  0  0  0  0  0  0
  111.5432   65.0681   31.8063 H   0  0  0  0  0  0  0  0  0  0  0  0
  110.5820   67.3180   31.4132 H   0  0  0  0  0  0  0  0  0  0  0  0
  111.8405   64.1981   34.1300 H   0  0  0  0  0  0  0  0  0  0  0  0
  111.4594   67.6070   41.6221 H   0  0  0  0  0  0  0  0  0  0  0  0
  107.4544   66.0463   41.1781 H   0  0  0  0  0  0  0  0  0  0  0  0
  111.9697   70.1684   37.1396 H   0  0  0  0  0  0  0  0  0  0  0  0
  109.1531   70.4789   33.8772 H   0  0  0  0  0  0  0  0  0  0  0  0
  109.8875   68.7659   33.3403 H   0  0  0  0  0  0  0  0  0  0  0  0
  110.5912   69.4118   43.1098 H   0  0  0  0  0  0  0  0  0  0  0  0
  106.5862   67.8510   42.6659 H   0  0  0  0  0  0  0  0  0  0  0  0
  113.3863   71.9301   36.0844 H   0  0  0  0  0  0  0  0  0  0  0  0
  110.5697   72.2408   32.8219 H   0  0  0  0  0  0  0  0  0  0  0  0
  110.7273   63.9210   37.3316 H   0  0  0  0  0  0  0  0  0  0  0  0
  112.4344   64.2807   36.8926 H   0  0  0  0  0  0  0  0  0  0  0  0
  111.0527   68.0646   38.7828 H   0  0  0  0  0  0  0  0  0  0  0  0
  109.3301   67.5764   38.6832 H   0  0  0  0  0  0  0  0  0  0  0  0
  111.8864   64.3110   39.4064 H   0  0  0  0  0  0  0  0  0  0  0  0
  112.6930   65.7906   38.7375 H   0  0  0  0  0  0  0  0  0  0  0  0
  106.4857   69.7344   45.1300 H   0  0  0  0  0  0  0  0  0  0  0  0
  106.2127   70.6346   43.5998 H   0  0  0  0  0  0  0  0  0  0  0  0
  106.1992   68.8384   43.5998 H   0  0  0  0  0  0  0  0  0  0  0  0
  109.5366   69.3650   37.2841 H   0  0  0  0  0  0  0  0  0  0  0  0
  108.6338   69.1743   35.7261 H   0  0  0  0  0  0  0  0  0  0  0  0
  112.5564   73.5630   32.9594 H   0  0  0  0  0  0  0  0  0  0  0  0
  1  2  2  0
  1  3  1  0
  2  8  1  0
  3 13  2  0
  4  9  2  0
  4 14  1  0
  5 10  1  0
  5 14  2  0
  6 11  2  0
  6 16  1  0
  7 12  1  0
  7 16  2  0
  8 17  2  0
  9 19  1  0
 10 19  2  0
 11 18  1  0
 12 18  2  0
 13 15  1  0
 13 17  1  0
 14 21  1  0
 15 20  2  0
 15 22  1  0
 16 26  1  0
 17 27  1  0
 18 30  1  0
 19 31  1  0
 20 23  1  0
 20 27  1  0
 21 28  1  0
 21 29  2  0
 22 24  1  0
 23 28  1  0
 24 28  1  0
 25 31  1  0
 26 27  1  0
  1 32  1  0
  2 33  1  0
  3 34  1  0
  4 35  1  0
  5 36  1  0
  6 37  1  0
  7 38  1  0
  8 39  1  0
  9 40  1  0
 10 41  1  0
 11 42  1  0
 12 43  1  0
 22 44  1  0
 22 45  1  0
 23 46  1  0
 23 47  1  0
 24 48  1  0
 24 49  1  0
 25 50  1  0
 25 51  1  0
 25 52  1  0
 26 53  1  0
 26 54  1  0
 30 55  1  0
M  END
>  <Name>  (56) 
CHEMBL302497

>  <Comment>  (56) 
 Schrodinger Suite 2021-4.

>  <s_m_entry_id>  (56) 
1158

>  <class_value>  (56) 
1

>  <s_m_Source_Path>  (56) 
C:\Users\vinicius\Desktop

>  <s_m_Source_File>  (56) 
Ligands_Saureus_o.sdf

>  <i_m_Source_File_Index>  (56) 
66

>  <r_lp_tautomer_probability>  (56) 
0.999999999997365

>  <r_epik_Ionization_Penalty>  (56) 
0.0009

>  <r_epik_State_Penalty>  (56) 
0.0006

>  <i_epik_Tot_Q>  (56) 
0

>  <i_f3d_flags>  (56) 
0

>  <s_m_job_name>  (56) 
Saureus_o

>  <FRED Chemgauss4 score>  (56) 
-12.443401

>  <Set>  (56) 
training

>  <HBA count>  (56) 
4

>  <HBD count>  (56) 
1

>  <ExactMolWt>  (56) 
412.17869262800065

>  <NumRotatableBounds>  (56) 
6

>  <FractionCsp3>  (56) 
0.19230769230769232

>  <TPSA>  (56) 
54.7

>  <LogP_WildmanCrippen>  (56) 
4.602300000000004

>  <General_Cluster>  (56) 
3

>  <Biological_Cluster>  (56) 
1

>  <Physicochemical_Cluster>  (56) 
1

>  <Structural_Cluster>  (56) 
4

$$$$
CHEMBL3322710
     RDKit          3D

 51 54  0  0  0  0  0  0  0  0999 V2000
  111.4745   73.2145   32.7525 C   0  0  0  0  0  0  0  0  0  0  0  0
  111.2175   72.5825   31.5360 C   0  0  0  0  0  0  0  0  0  0  0  0
  111.5620   72.4628   33.9243 C   0  0  0  0  0  0  0  0  0  0  0  0
  111.0479   71.1987   31.4911 C   0  0  0  0  0  0  0  0  0  0  0  0
  110.0098   66.7443   39.4741 C   0  0  0  0  0  0  0  0  0  0  0  0
  112.2534   66.3454   40.1440 C   0  0  0  0  0  0  0  0  0  0  0  0
  111.3061   66.3757   39.1360 C   0  0  0  0  0  0  0  0  0  0  0  0
  109.6970   67.0492   40.7996 C   0  0  0  0  0  0  0  0  0  0  0  0
  111.3924   71.0790   33.8794 C   0  0  0  0  0  0  0  0  0  0  0  0
  111.1353   70.4469   32.6629 C   0  0  0  0  0  0  0  0  0  0  0  0
  110.7197   66.9837   41.7452 C   0  0  0  0  0  0  0  0  0  0  0  0
  109.1623   67.5256   43.5799 C   0  0  0  0  0  0  0  0  0  0  0  0
  111.6590   66.0475   37.7668 C   0  0  0  0  0  0  0  0  0  0  0  0
  110.9641   66.4075   36.6619 C   0  0  0  0  0  0  0  0  0  0  0  0
  111.3581   66.0412   35.2894 C   0  0  0  0  0  0  0  0  0  0  0  0
  108.3371   67.5427   41.1909 C   0  0  0  0  0  0  0  0  0  0  0  0
  108.0277   67.1837   42.6356 C   0  0  0  0  0  0  0  0  0  0  0  0
  109.3124   67.2846   34.2899 C   0  0  0  0  0  0  0  0  0  0  0  0
  110.5956   66.3054   32.8684 C   0  0  0  0  0  0  0  0  0  0  0  0
  109.4089   67.2771   32.7540 C   0  0  0  0  0  0  0  0  0  0  0  0
  111.4890   70.2906   35.1434 C   0  0  0  0  0  0  0  0  0  0  0  0
  109.7197   68.6179   32.1094 C   0  0  0  0  0  0  0  0  0  0  0  0
  111.9943   66.6472   41.4360 N   0  0  0  0  0  0  0  0  0  0  0  0
  110.4332   67.3109   43.0844 N   0  0  0  0  0  0  0  0  0  0  0  0
  110.5295   66.4975   34.3046 N   0  0  0  0  0  0  0  0  0  0  0  0
  108.9449   67.8785   44.7389 O   0  0  0  0  0  0  0  0  0  0  0  0
  112.3699   65.3705   35.1008 O   0  0  0  0  0  0  0  0  0  0  0  0
  110.9651   69.0873   32.6013 O   0  0  0  0  0  0  0  0  0  0  0  0
  111.6082   74.3058   32.7879 H   0  0  0  0  0  0  0  0  0  0  0  0
  111.1486   73.1753   30.6120 H   0  0  0  0  0  0  0  0  0  0  0  0
  111.7647   72.9613   34.8837 H   0  0  0  0  0  0  0  0  0  0  0  0
  110.8452   70.7003   30.5317 H   0  0  0  0  0  0  0  0  0  0  0  0
  109.2315   66.7957   38.6985 H   0  0  0  0  0  0  0  0  0  0  0  0
  113.2812   66.0579   39.8775 H   0  0  0  0  0  0  0  0  0  0  0  0
  112.5721   65.4536   37.6132 H   0  0  0  0  0  0  0  0  0  0  0  0
  110.0525   67.0083   36.7962 H   0  0  0  0  0  0  0  0  0  0  0  0
  108.3033   68.6361   41.0758 H   0  0  0  0  0  0  0  0  0  0  0  0
  107.5885   67.0661   40.5410 H   0  0  0  0  0  0  0  0  0  0  0  0
  107.8338   66.1026   42.6956 H   0  0  0  0  0  0  0  0  0  0  0  0
  107.1510   67.7724   42.9434 H   0  0  0  0  0  0  0  0  0  0  0  0
  109.4033   68.2793   34.7508 H   0  0  0  0  0  0  0  0  0  0  0  0
  108.4034   66.9558   34.8149 H   0  0  0  0  0  0  0  0  0  0  0  0
  110.3833   65.2798   32.5321 H   0  0  0  0  0  0  0  0  0  0  0  0
  111.5278   66.4606   32.3054 H   0  0  0  0  0  0  0  0  0  0  0  0
  108.5343   67.0326   32.1332 H   0  0  0  0  0  0  0  0  0  0  0  0
  111.4059   70.9685   36.0057 H   0  0  0  0  0  0  0  0  0  0  0  0
  110.6746   69.5519   35.1780 H   0  0  0  0  0  0  0  0  0  0  0  0
  112.4576   69.7704   35.1780 H   0  0  0  0  0  0  0  0  0  0  0  0
  109.7755   68.4984   31.0173 H   0  0  0  0  0  0  0  0  0  0  0  0
  108.9269   69.3407   32.3525 H   0  0  0  0  0  0  0  0  0  0  0  0
  111.2246   67.3958   43.7382 H   0  0  0  0  0  0  0  0  0  0  0  0
  1  2  2  0
  1  3  1  0
  2  4  1  0
  3  9  2  0
  4 10  2  0
  5  7  2  0
  5  8  1  0
  6  7  1  0
  6 23  2  0
  7 13  1  0
  8 11  2  0
  8 16  1  0
  9 10  1  0
  9 21  1  0
 10 28  1  0
 11 23  1  0
 11 24  1  0
 12 17  1  0
 12 24  1  0
 12 26  2  0
 13 14  2  0
 14 15  1  0
 15 25  1  0
 15 27  2  0
 16 17  1  0
 18 20  1  0
 18 25  1  0
 19 20  1  0
 19 25  1  0
 20 22  1  0
 22 28  1  0
  1 29  1  0
  2 30  1  0
  3 31  1  0
  4 32  1  0
  5 33  1  0
  6 34  1  0
 13 35  1  0
 14 36  1  0
 16 37  1  0
 16 38  1  0
 17 39  1  0
 17 40  1  0
 18 41  1  0
 18 42  1  0
 19 43  1  0
 19 44  1  0
 20 45  1  0
 21 46  1  0
 21 47  1  0
 21 48  1  0
 22 49  1  0
 22 50  1  0
 24 51  1  0
M  END
>  <Name>  (57) 
CHEMBL3322710

>  <Comment>  (57) 
 Schrodinger Suite 2021-4.

>  <s_m_entry_id>  (57) 
1136

>  <class_value>  (57) 
1

>  <s_m_Source_Path>  (57) 
C:\Users\vinicius\Desktop

>  <s_m_Source_File>  (57) 
Ligands_Saureus_o.sdf

>  <i_m_Source_File_Index>  (57) 
50

>  <r_lp_tautomer_probability>  (57) 
1

>  <r_epik_Ionization_Penalty>  (57) 
0.0002

>  <r_epik_State_Penalty>  (57) 
0

>  <i_epik_Tot_Q>  (57) 
0

>  <i_f3d_flags>  (57) 
0

>  <s_m_job_name>  (57) 
Saureus_o

>  <FRED Chemgauss4 score>  (57) 
-15.149991

>  <Set>  (57) 
training

>  <HBA count>  (57) 
4

>  <HBD count>  (57) 
1

>  <ExactMolWt>  (57) 
377.17394159600065

>  <NumRotatableBounds>  (57) 
6

>  <FractionCsp3>  (57) 
0.3181818181818182

>  <TPSA>  (57) 
71.53

>  <LogP_WildmanCrippen>  (57) 
2.8253200000000005

>  <General_Cluster>  (57) 
1

>  <Biological_Cluster>  (57) 
1

>  <Physicochemical_Cluster>  (57) 
1

>  <Structural_Cluster>  (57) 
2

$$$$
CHEMBL4208104
     RDKit          3D

 42 44  0  0  1  0  0  0  0  0999 V2000
  112.4671   66.2492   39.6572 C   0  0  0  0  0  0  0  0  0  0  0  0
  112.2324   66.4351   41.0151 C   0  0  0  0  0  0  0  0  0  0  0  0
  112.4907   71.5587   32.4584 C   0  0  0  0  0  0  0  0  0  0  0  0
  110.1433   66.5694   39.2648 C   0  0  0  0  0  0  0  0  0  0  0  0
  112.2385   72.2887   33.6011 C   0  0  0  0  0  0  0  0  0  0  0  0
  111.4081   66.3161   38.7588 C   0  0  0  0  0  0  0  0  0  0  0  0
  110.9308   66.6833   41.4201 C   0  0  0  0  0  0  0  0  0  0  0  0
  110.7812   70.4104   33.2127 C   0  0  0  0  0  0  0  0  0  0  0  0
  111.6239   66.1234   37.3142 C   0  0  0  0  0  0  0  0  0  0  0  0
  110.7860   66.5308   36.3492 C   0  0  0  0  0  0  0  0  0  0  0  0
  111.0415   66.3058   34.9127 C   0  0  0  0  0  0  0  0  0  0  0  0
  109.4914   67.1301   43.4332 C   0  0  0  0  0  0  0  0  0  0  0  0
  109.7253   68.3870   32.1262 C   0  0  0  0  0  0  0  0  0  0  0  0
  110.6361   67.2539   32.5822 C   0  0  0  0  0  0  0  0  0  0  0  0
  109.7853   68.4037   34.5167 C   0  0  0  0  0  0  0  0  0  0  0  0
  109.6947   69.3555   33.3188 C   0  0  1  0  0  0  0  0  0  0  0  0
  109.6714   67.2615   44.9248 C   0  0  0  0  0  0  0  0  0  0  0  0
  109.8765   66.7554   40.5770 N   0  0  0  0  0  0  0  0  0  0  0  0
  111.6563   70.4811   32.2343 N   0  0  0  0  0  0  0  0  0  0  0  0
  110.5294   67.2450   34.0381 N   0  0  0  0  0  0  0  0  0  0  0  0
  110.7049   66.8694   42.7892 N   0  0  0  0  0  0  0  0  0  0  0  0
  111.6816   65.3109   34.5737 O   0  0  0  0  0  0  0  0  0  0  0  0
  108.3826   67.2472   42.9216 O   0  0  0  0  0  0  0  0  0  0  0  0
  110.9035   71.6084   34.4354 S   0  0  0  0  0  0  0  0  0  0  0  0
  113.4866   66.0500   39.2952 H   0  0  0  0  0  0  0  0  0  0  0  0
  113.0541   66.3866   41.7447 H   0  0  0  0  0  0  0  0  0  0  0  0
  113.3064   71.8188   31.7678 H   0  0  0  0  0  0  0  0  0  0  0  0
  109.3046   66.6224   38.5550 H   0  0  0  0  0  0  0  0  0  0  0  0
  112.8068   73.1722   33.9274 H   0  0  0  0  0  0  0  0  0  0  0  0
  112.5431   65.6055   37.0030 H   0  0  0  0  0  0  0  0  0  0  0  0
  109.8655   67.0571   36.6419 H   0  0  0  0  0  0  0  0  0  0  0  0
  110.1360   68.8814   31.2336 H   0  0  0  0  0  0  0  0  0  0  0  0
  108.7219   68.0325   31.8478 H   0  0  0  0  0  0  0  0  0  0  0  0
  110.2981   66.2943   32.1640 H   0  0  0  0  0  0  0  0  0  0  0  0
  111.6734   67.3969   32.2451 H   0  0  0  0  0  0  0  0  0  0  0  0
  110.3175   68.8848   35.3505 H   0  0  0  0  0  0  0  0  0  0  0  0
  108.7898   68.1232   34.8912 H   0  0  0  0  0  0  0  0  0  0  0  0
  108.7956   69.9850   33.3917 H   0  0  0  0  0  0  0  0  0  0  0  0
  108.8867   66.6887   45.4407 H   0  0  0  0  0  0  0  0  0  0  0  0
  110.6589   66.8704   45.2108 H   0  0  0  0  0  0  0  0  0  0  0  0
  109.5998   68.3213   45.2108 H   0  0  0  0  0  0  0  0  0  0  0  0
  111.5344   66.8066   43.3966 H   0  0  0  0  0  0  0  0  0  0  0  0
  1  2  2  0
  1  6  1  0
  2  7  1  0
  3  5  2  0
  3 19  1  0
  4  6  2  0
  4 18  1  0
  5 24  1  0
  6  9  1  0
  7 18  2  0
  7 21  1  0
  8 16  1  0
  8 19  2  0
  8 24  1  0
  9 10  2  0
 10 11  1  0
 11 20  1  0
 11 22  2  0
 12 17  1  0
 12 21  1  0
 12 23  2  0
 13 14  1  0
 13 16  1  0
 14 20  1  0
 15 16  1  0
 15 20  1  0
  1 25  1  0
  2 26  1  0
  3 27  1  0
  4 28  1  0
  5 29  1  0
  9 30  1  0
 10 31  1  0
 13 32  1  0
 13 33  1  0
 14 34  1  0
 14 35  1  0
 15 36  1  0
 15 37  1  0
 16 38  1  1
 17 39  1  0
 17 40  1  0
 17 41  1  0
 21 42  1  0
M  END
>  <Name>  (58) 
CHEMBL4208104

>  <Comment>  (58) 
 Schrodinger Suite 2021-4.

>  <s_m_entry_id>  (58) 
1463

>  <s_m_Source_Path>  (58) 
C:\Users\vinicius\Desktop

>  <s_m_Source_File>  (58) 
Ligands_Saureus_failomega.smi

>  <i_m_Source_File_Index>  (58) 
20

>  <r_lp_tautomer_probability>  (58) 
1

>  <r_epik_Ionization_Penalty>  (58) 
0.0002

>  <r_epik_State_Penalty>  (58) 
0

>  <i_epik_Tot_Q>  (58) 
0

>  <i_f3d_flags>  (58) 
0

>  <s_m_job_name>  (58) 
Saureus_fail

>  <class_value>  (58) 
0

>  <FRED Chemgauss4 score>  (58) 
-12.963226

>  <Set>  (58) 
training

>  <HBA count>  (58) 
5

>  <HBD count>  (58) 
1

>  <ExactMolWt>  (58) 
342.1150468160005

>  <NumRotatableBounds>  (58) 
5

>  <FractionCsp3>  (58) 
0.29411764705882354

>  <TPSA>  (58) 
75.19

>  <LogP_WildmanCrippen>  (58) 
2.5258000000000003

>  <General_Cluster>  (58) 
5

>  <Biological_Cluster>  (58) 
2

>  <Physicochemical_Cluster>  (58) 
4

>  <Structural_Cluster>  (58) 
3

$$$$
CHEMBL4210639
     RDKit          3D

 39 41  0  0  1  0  0  0  0  0999 V2000
  111.6580   72.3243   34.6809 C   0  0  0  0  0  0  0  0  0  0  0  0
  110.9922   72.3651   33.4559 C   0  0  0  0  0  0  0  0  0  0  0  0
  111.9028   71.0992   35.3012 C   0  0  0  0  0  0  0  0  0  0  0  0
  111.6613   64.5516   39.5577 C   0  0  0  0  0  0  0  0  0  0  0  0
  111.9809   65.8395   39.9874 C   0  0  0  0  0  0  0  0  0  0  0  0
  110.5712   71.1807   32.8511 C   0  0  0  0  0  0  0  0  0  0  0  0
  111.4819   69.9148   34.6965 C   0  0  0  0  0  0  0  0  0  0  0  0
  111.0706   64.3596   38.3087 C   0  0  0  0  0  0  0  0  0  0  0  0
  111.7098   66.9355   39.1683 C   0  0  0  0  0  0  0  0  0  0  0  0
  110.8160   69.9556   33.4714 C   0  0  0  0  0  0  0  0  0  0  0  0
  110.7994   65.4556   37.4896 C   0  0  0  0  0  0  0  0  0  0  0  0
  111.1190   66.7435   37.9194 C   0  0  0  0  0  0  0  0  0  0  0  0
  111.0208   65.7731   35.0244 C   0  0  0  0  0  0  0  0  0  0  0  0
  108.9355   68.2794   33.2507 C   0  0  0  0  0  0  0  0  0  0  0  0
  109.1434   67.3867   34.4673 C   0  0  0  0  0  0  0  0  0  0  0  0
  111.1626   67.4070   33.1562 C   0  0  0  0  0  0  0  0  0  0  0  0
  110.3579   68.6662   32.8139 C   0  0  2  0  0  0  0  0  0  0  0  0
  110.1643   65.2451   36.1473 C   0  0  0  0  0  0  0  0  0  0  0  0
  110.4589   66.7896   34.2725 N   0  0  0  0  0  0  0  0  0  0  0  0
  112.1402   65.3012   34.8189 O   0  0  0  0  0  0  0  0  0  0  0  0
  110.8624   67.8027   37.1392 F   0  0  0  0  0  0  0  0  0  0  0  0
  111.9900   73.2583   35.1578 H   0  0  0  0  0  0  0  0  0  0  0  0
  110.7991   73.3313   32.9668 H   0  0  0  0  0  0  0  0  0  0  0  0
  112.4278   71.0671   36.2673 H   0  0  0  0  0  0  0  0  0  0  0  0
  111.8751   63.6873   40.2037 H   0  0  0  0  0  0  0  0  0  0  0  0
  112.4468   65.9909   40.9723 H   0  0  0  0  0  0  0  0  0  0  0  0
  110.0462   71.2129   31.8850 H   0  0  0  0  0  0  0  0  0  0  0  0
  111.6751   68.9487   35.1856 H   0  0  0  0  0  0  0  0  0  0  0  0
  110.8187   63.3439   37.9697 H   0  0  0  0  0  0  0  0  0  0  0  0
  111.9619   67.9512   39.5072 H   0  0  0  0  0  0  0  0  0  0  0  0
  108.4176   67.7316   32.4497 H   0  0  0  0  0  0  0  0  0  0  0  0
  108.3123   69.1574   33.4760 H   0  0  0  0  0  0  0  0  0  0  0  0
  109.1213   67.9815   35.3924 H   0  0  0  0  0  0  0  0  0  0  0  0
  108.3536   66.6272   34.5641 H   0  0  0  0  0  0  0  0  0  0  0  0
  111.1926   66.7235   32.2948 H   0  0  0  0  0  0  0  0  0  0  0  0
  112.2057   67.6450   33.4116 H   0  0  0  0  0  0  0  0  0  0  0  0
  110.4695   68.9193   31.7493 H   0  0  0  0  0  0  0  0  0  0  0  0
  110.0055   64.1673   35.9954 H   0  0  0  0  0  0  0  0  0  0  0  0
  109.2118   65.7952   36.1337 H   0  0  0  0  0  0  0  0  0  0  0  0
  1  2  2  0
  1  3  1  0
  2  6  1  0
  3  7  2  0
  4  5  2  0
  4  8  1  0
  5  9  1  0
  6 10  2  0
  7 10  1  0
  8 11  2  0
  9 12  2  0
 10 17  1  0
 11 12  1  0
 11 18  1  0
 12 21  1  0
 13 18  1  0
 13 19  1  0
 13 20  2  0
 14 15  1  0
 14 17  1  0
 15 19  1  0
 16 17  1  0
 16 19  1  0
  1 22  1  0
  2 23  1  0
  3 24  1  0
  4 25  1  0
  5 26  1  0
  6 27  1  0
  7 28  1  0
  8 29  1  0
  9 30  1  0
 14 31  1  0
 14 32  1  0
 15 33  1  0
 15 34  1  0
 16 35  1  0
 16 36  1  0
 17 37  1  6
 18 38  1  0
 18 39  1  0
M  END
>  <Name>  (59) 
CHEMBL4210639

>  <Comment>  (59) 
 Schrodinger Suite 2021-4.

>  <s_m_entry_id>  (59) 
1467

>  <s_m_Source_Path>  (59) 
C:\Users\vinicius\Desktop

>  <s_m_Source_File>  (59) 
Ligands_Saureus_failomega.smi

>  <i_m_Source_File_Index>  (59) 
22

>  <r_lp_tautomer_probability>  (59) 
1

>  <r_epik_Ionization_Penalty>  (59) 
0

>  <r_epik_State_Penalty>  (59) 
0

>  <i_epik_Tot_Q>  (59) 
0

>  <i_f3d_flags>  (59) 
0

>  <s_m_job_name>  (59) 
Saureus_fail

>  <class_value>  (59) 
0

>  <FRED Chemgauss4 score>  (59) 
-13.869378

>  <Set>  (59) 
training

>  <HBA count>  (59) 
1

>  <HBD count>  (59) 
0

>  <ExactMolWt>  (59) 
283.1372424160005

>  <NumRotatableBounds>  (59) 
3

>  <FractionCsp3>  (59) 
0.2777777777777778

>  <TPSA>  (59) 
20.310000000000002

>  <LogP_WildmanCrippen>  (59) 
3.3843000000000023

>  <General_Cluster>  (59) 
2

>  <Biological_Cluster>  (59) 
2

>  <Physicochemical_Cluster>  (59) 
3

>  <Structural_Cluster>  (59) 
3

$$$$
CHEMBL3676399
     RDKit          3D

 41 43  0  0  0  0  0  0  0  0999 V2000
  109.2573   67.6553   31.8645 C   0  0  0  0  0  0  0  0  0  0  0  0
  111.9800   73.4237   35.2125 C   0  0  0  0  0  0  0  0  0  0  0  0
  108.3963   68.3886   32.6809 C   0  0  0  0  0  0  0  0  0  0  0  0
  110.5856   67.4645   32.2452 C   0  0  0  0  0  0  0  0  0  0  0  0
  111.3695   72.9807   36.3857 C   0  0  0  0  0  0  0  0  0  0  0  0
  112.1754   72.5398   34.1512 C   0  0  0  0  0  0  0  0  0  0  0  0
  108.8635   68.9311   33.8780 C   0  0  0  0  0  0  0  0  0  0  0  0
  111.0529   68.0071   33.4423 C   0  0  0  0  0  0  0  0  0  0  0  0
  110.9544   71.6538   36.4978 C   0  0  0  0  0  0  0  0  0  0  0  0
  111.7603   71.2129   34.2633 C   0  0  0  0  0  0  0  0  0  0  0  0
  110.1918   68.7403   34.2587 C   0  0  0  0  0  0  0  0  0  0  0  0
  111.1498   70.7698   35.4366 C   0  0  0  0  0  0  0  0  0  0  0  0
  111.9415   68.7623   37.5536 C   0  0  0  0  0  0  0  0  0  0  0  0
  111.2596   67.1457   36.4341 C   0  0  0  0  0  0  0  0  0  0  0  0
  112.0419   67.2356   37.7620 C   0  0  0  0  0  0  0  0  0  0  0  0
  110.5075   65.1039   40.6804 C   0  0  0  0  0  0  0  0  0  0  0  0
  110.6996   69.3291   35.5577 C   0  0  0  0  0  0  0  0  0  0  0  0
  111.7662   68.4991   36.1060 N   0  0  0  0  0  0  0  0  0  0  0  0
  112.8218   64.7296   39.5166 O   0  0  0  0  0  0  0  0  0  0  0  0
  110.7021   64.4053   38.1654 O   0  0  0  0  0  0  0  0  0  0  0  0
  111.3833   66.7040   38.9228 O   0  0  0  0  0  0  0  0  0  0  0  0
  111.4616   65.1015   39.1840 S   0  0  0  0  0  6  0  0  0  0  0  0
  108.8888   67.2275   30.9205 H   0  0  0  0  0  0  0  0  0  0  0  0
  112.3074   74.4701   35.1241 H   0  0  0  0  0  0  0  0  0  0  0  0
  107.3488   68.5391   32.3807 H   0  0  0  0  0  0  0  0  0  0  0  0
  111.2646   66.8861   31.6014 H   0  0  0  0  0  0  0  0  0  0  0  0
  111.2154   73.6778   37.2226 H   0  0  0  0  0  0  0  0  0  0  0  0
  112.6568   72.8892   33.2259 H   0  0  0  0  0  0  0  0  0  0  0  0
  108.1845   69.5094   34.5218 H   0  0  0  0  0  0  0  0  0  0  0  0
  112.1004   67.8568   33.7425 H   0  0  0  0  0  0  0  0  0  0  0  0
  110.4729   71.3045   37.4231 H   0  0  0  0  0  0  0  0  0  0  0  0
  111.9144   70.5159   33.4264 H   0  0  0  0  0  0  0  0  0  0  0  0
  111.0753   69.2341   38.0406 H   0  0  0  0  0  0  0  0  0  0  0  0
  112.7203   69.4454   37.9235 H   0  0  0  0  0  0  0  0  0  0  0  0
  111.6028   66.3520   35.7543 H   0  0  0  0  0  0  0  0  0  0  0  0
  110.1844   66.9141   36.4149 H   0  0  0  0  0  0  0  0  0  0  0  0
  112.9961   66.7165   37.9353 H   0  0  0  0  0  0  0  0  0  0  0  0
  111.1848   65.1022   41.5471 H   0  0  0  0  0  0  0  0  0  0  0  0
  109.8754   66.0036   40.7108 H   0  0  0  0  0  0  0  0  0  0  0  0
  109.8709   64.2074   40.7108 H   0  0  0  0  0  0  0  0  0  0  0  0
  109.8452   69.3372   36.2505 H   0  0  0  0  0  0  0  0  0  0  0  0
  1  3  2  0
  1  4  1  0
  2  5  2  0
  2  6  1  0
  3  7  1  0
  4  8  2  0
  5  9  1  0
  6 10  2  0
  7 11  2  0
  8 11  1  0
  9 12  2  0
 10 12  1  0
 11 17  1  0
 12 17  1  0
 13 15  1  0
 13 18  1  0
 14 15  1  0
 14 18  1  0
 15 21  1  0
 16 22  1  0
 17 18  1  0
 19 22  2  0
 20 22  2  0
 21 22  1  0
  1 23  1  0
  2 24  1  0
  3 25  1  0
  4 26  1  0
  5 27  1  0
  6 28  1  0
  7 29  1  0
  8 30  1  0
  9 31  1  0
 10 32  1  0
 13 33  1  0
 13 34  1  0
 14 35  1  0
 14 36  1  0
 15 37  1  0
 16 38  1  0
 16 39  1  0
 16 40  1  0
 17 41  1  0
M  END
>  <Name>  (60) 
CHEMBL3676399

>  <Comment>  (60) 
 Schrodinger Suite 2021-4.

>  <s_m_entry_id>  (60) 
1200

>  <class_value>  (60) 
1

>  <s_m_Source_Path>  (60) 
C:\Users\vinicius\Desktop

>  <s_m_Source_File>  (60) 
Ligands_Saureus_o.sdf

>  <i_m_Source_File_Index>  (60) 
99

>  <r_epik_Ionization_Penalty>  (60) 
1.5713

>  <r_epik_State_Penalty>  (60) 
1.6671

>  <i_epik_Tot_Q>  (60) 
0

>  <i_f3d_flags>  (60) 
0

>  <s_m_job_name>  (60) 
Saureus_o

>  <FRED Chemgauss4 score>  (60) 
-9.653752

>  <Set>  (60) 
training

>  <HBA count>  (60) 
4

>  <HBD count>  (60) 
0

>  <ExactMolWt>  (60) 
317.1085644680005

>  <NumRotatableBounds>  (60) 
6

>  <FractionCsp3>  (60) 
0.29411764705882354

>  <TPSA>  (60) 
46.61

>  <LogP_WildmanCrippen>  (60) 
2.4364

>  <General_Cluster>  (60) 
1

>  <Biological_Cluster>  (60) 
1

>  <Physicochemical_Cluster>  (60) 
1

>  <Structural_Cluster>  (60) 
3

$$$$
CHEMBL571088
     RDKit          3D

 63 67  0  0  0  0  0  0  0  0999 V2000
  111.8537   72.9569   34.1337 C   0  0  0  0  0  0  0  0  0  0  0  0
  110.5770   73.2274   34.6220 C   0  0  0  0  0  0  0  0  0  0  0  0
  112.2219   71.6556   33.7730 C   0  0  0  0  0  0  0  0  0  0  0  0
  109.6295   72.2097   34.7653 C   0  0  0  0  0  0  0  0  0  0  0  0
  111.3107   69.2146   33.6481 C   0  0  0  0  0  0  0  0  0  0  0  0
  110.3083   66.9449   38.9124 C   0  0  0  0  0  0  0  0  0  0  0  0
  112.2573   65.7662   39.5850 C   0  0  0  0  0  0  0  0  0  0  0  0
  111.2835   70.6133   33.9088 C   0  0  0  0  0  0  0  0  0  0  0  0
  111.4388   66.2162   38.5641 C   0  0  0  0  0  0  0  0  0  0  0  0
  110.0222   67.1829   40.2573 C   0  0  0  0  0  0  0  0  0  0  0  0
  110.0115   70.9138   34.4008 C   0  0  0  0  0  0  0  0  0  0  0  0
  110.0778   68.7026   33.9809 C   0  0  0  0  0  0  0  0  0  0  0  0
  110.9034   66.6836   41.2118 C   0  0  0  0  0  0  0  0  0  0  0  0
  109.4920   67.5225   43.0596 C   0  0  0  0  0  0  0  0  0  0  0  0
  111.7584   65.9476   37.1740 C   0  0  0  0  0  0  0  0  0  0  0  0
  110.8814   66.0030   36.1438 C   0  0  0  0  0  0  0  0  0  0  0  0
  111.3263   65.6717   34.7580 C   0  0  0  0  0  0  0  0  0  0  0  0
  108.8622   68.0348   40.6788 C   0  0  0  0  0  0  0  0  0  0  0  0
  107.3058   68.7239   42.5167 C   0  0  0  0  0  0  0  0  0  0  0  0
  107.5989   66.2544   41.9750 C   0  0  0  0  0  0  0  0  0  0  0  0
  106.4200   68.3398   43.6957 C   0  0  0  0  0  0  0  0  0  0  0  0
  106.7604   65.9217   43.2009 C   0  0  0  0  0  0  0  0  0  0  0  0
  108.3102   67.6309   42.0682 C   0  0  0  0  0  0  0  0  0  0  0  0
  107.9294   69.6070   34.8821 C   0  0  0  0  0  0  0  0  0  0  0  0
  111.0124   66.0371   32.3405 C   0  0  0  0  0  0  0  0  0  0  0  0
  109.5704   67.2917   33.9033 C   0  0  0  0  0  0  0  0  0  0  0  0
  112.0220   65.9886   40.8973 N   0  0  0  0  0  0  0  0  0  0  0  0
  109.3010   69.7351   34.4337 N   0  0  0  0  0  0  0  0  0  0  0  0
  110.6468   66.9402   42.5698 N   0  0  0  0  0  0  0  0  0  0  0  0
  110.6557   66.3292   33.7229 N   0  0  0  0  0  0  0  0  0  0  0  0
  105.7840   67.0204   43.4359 N   0  0  0  0  0  4  0  0  0  0  0  0
  109.3978   67.8541   44.2421 O   0  0  0  0  0  0  0  0  0  0  0  0
  112.2200   64.8418   34.5843 O   0  0  0  0  0  0  0  0  0  0  0  0
  112.5809   73.7758   34.0305 H   0  0  0  0  0  0  0  0  0  0  0  0
  110.3105   74.2580   34.8991 H   0  0  0  0  0  0  0  0  0  0  0  0
  113.2315   71.4491   33.3882 H   0  0  0  0  0  0  0  0  0  0  0  0
  108.6208   72.4198   35.1504 H   0  0  0  0  0  0  0  0  0  0  0  0
  112.1642   68.6450   33.2517 H   0  0  0  0  0  0  0  0  0  0  0  0
  109.6402   67.3334   38.1296 H   0  0  0  0  0  0  0  0  0  0  0  0
  113.1549   65.1920   39.3117 H   0  0  0  0  0  0  0  0  0  0  0  0
  112.7981   65.6769   36.9381 H   0  0  0  0  0  0  0  0  0  0  0  0
  109.8367   66.2934   36.3289 H   0  0  0  0  0  0  0  0  0  0  0  0
  109.1904   69.0839   40.7199 H   0  0  0  0  0  0  0  0  0  0  0  0
  108.0567   67.8942   39.9430 H   0  0  0  0  0  0  0  0  0  0  0  0
  106.6539   68.9594   41.6626 H   0  0  0  0  0  0  0  0  0  0  0  0
  107.9113   69.5786   42.8527 H   0  0  0  0  0  0  0  0  0  0  0  0
  108.3646   65.4740   41.8543 H   0  0  0  0  0  0  0  0  0  0  0  0
  106.9132   66.3013   41.1162 H   0  0  0  0  0  0  0  0  0  0  0  0
  107.0318   68.2776   44.6077 H   0  0  0  0  0  0  0  0  0  0  0  0
  105.6377   69.1018   43.8271 H   0  0  0  0  0  0  0  0  0  0  0  0
  106.2201   64.9784   43.0327 H   0  0  0  0  0  0  0  0  0  0  0  0
  107.4143   65.8129   44.0788 H   0  0  0  0  0  0  0  0  0  0  0  0
  107.9019   69.6044   35.9818 H   0  0  0  0  0  0  0  0  0  0  0  0
  107.3389   70.4539   34.5025 H   0  0  0  0  0  0  0  0  0  0  0  0
  107.5060   68.6654   34.5025 H   0  0  0  0  0  0  0  0  0  0  0  0
  111.8633   65.3403   32.3208 H   0  0  0  0  0  0  0  0  0  0  0  0
  110.1525   65.5804   31.8286 H   0  0  0  0  0  0  0  0  0  0  0  0
  111.2906   66.9701   31.8286 H   0  0  0  0  0  0  0  0  0  0  0  0
  109.0364   67.0544   34.8353 H   0  0  0  0  0  0  0  0  0  0  0  0
  108.9023   67.2180   33.0325 H   0  0  0  0  0  0  0  0  0  0  0  0
  111.3727   66.6748   43.2506 H   0  0  0  0  0  0  0  0  0  0  0  0
  105.2051   66.7723   44.2509 H   0  0  0  0  0  0  0  0  0  0  0  0
  105.2280   67.1185   42.5744 H   0  0  0  0  0  0  0  0  0  0  0  0
  1  2  2  0
  1  3  1  0
  2  4  1  0
  3  8  2  0
  4 11  2  0
  5  8  1  0
  5 12  2  0
  6  9  2  0
  6 10  1  0
  7  9  1  0
  7 27  2  0
  8 11  1  0
  9 15  1  0
 10 13  2  0
 10 18  1  0
 11 28  1  0
 12 26  1  0
 12 28  1  0
 13 27  1  0
 13 29  1  0
 14 23  1  0
 14 29  1  0
 14 32  2  0
 15 16  2  0
 16 17  1  0
 17 30  1  0
 17 33  2  0
 18 23  1  0
 19 21  1  0
 19 23  1  0
 20 22  1  0
 20 23  1  0
 21 31  1  0
 22 31  1  0
 24 28  1  0
 25 30  1  0
 26 30  1  0
  1 34  1  0
  2 35  1  0
  3 36  1  0
  4 37  1  0
  5 38  1  0
  6 39  1  0
  7 40  1  0
 15 41  1  0
 16 42  1  0
 18 43  1  0
 18 44  1  0
 19 45  1  0
 19 46  1  0
 20 47  1  0
 20 48  1  0
 21 49  1  0
 21 50  1  0
 22 51  1  0
 22 52  1  0
 24 53  1  0
 24 54  1  0
 24 55  1  0
 25 56  1  0
 25 57  1  0
 25 58  1  0
 26 59  1  0
 26 60  1  0
 29 61  1  0
 31 62  1  0
 31 63  1  0
M  CHG  1  31   1
M  END
>  <Name>  (61) 
CHEMBL571088

>  <Comment>  (61) 
 Schrodinger Suite 2021-4.

>  <s_m_entry_id>  (61) 
1120

>  <class_value>  (61) 
1

>  <s_m_Source_Path>  (61) 
C:\Users\vinicius\Desktop

>  <s_m_Source_File>  (61) 
Ligands_Saureus_o.sdf

>  <i_m_Source_File_Index>  (61) 
38

>  <r_lp_tautomer_probability>  (61) 
1

>  <r_epik_Ionization_Penalty>  (61) 
0.0015

>  <r_epik_State_Penalty>  (61) 
0

>  <i_epik_Tot_Q>  (61) 
1

>  <i_f3d_flags>  (61) 
0

>  <s_m_job_name>  (61) 
Saureus_o

>  <FRED Chemgauss4 score>  (61) 
-13.873535

>  <Set>  (61) 
training

>  <HBA count>  (61) 
4

>  <HBD count>  (61) 
2

>  <ExactMolWt>  (61) 
444.2394016200909

>  <NumRotatableBounds>  (61) 
6

>  <FractionCsp3>  (61) 
0.34615384615384615

>  <TPSA>  (61) 
83.84

>  <LogP_WildmanCrippen>  (61) 
2.0833000000000004

>  <General_Cluster>  (61) 
1

>  <Biological_Cluster>  (61) 
1

>  <Physicochemical_Cluster>  (61) 
4

>  <Structural_Cluster>  (61) 
2

$$$$
CHEMBL4210008
     RDKit          3D

 42 45  0  0  1  0  0  0  0  0999 V2000
  110.0487   69.0963   33.2072 C   0  0  0  0  0  0  0  0  0  0  0  0
  108.3406   65.9782   41.7982 C   0  0  0  0  0  0  0  0  0  0  0  0
  107.2378   65.7032   42.6103 C   0  0  0  0  0  0  0  0  0  0  0  0
  109.6333   67.8665   33.7179 C   0  0  0  0  0  0  0  0  0  0  0  0
  110.6881   70.0164   34.0380 C   0  0  0  0  0  0  0  0  0  0  0  0
  109.2458   63.7541   42.2008 C   0  0  0  0  0  0  0  0  0  0  0  0
  109.3388   65.0093   41.5944 C   0  0  0  0  0  0  0  0  0  0  0  0
  110.4965   68.4771   35.8902 C   0  0  0  0  0  0  0  0  0  0  0  0
  107.1699   64.4563   43.1973 C   0  0  0  0  0  0  0  0  0  0  0  0
  108.1470   63.5079   42.9979 C   0  0  0  0  0  0  0  0  0  0  0  0
  109.8572   67.5570   35.0594 C   0  0  0  0  0  0  0  0  0  0  0  0
  110.9120   69.7068   35.3795 C   0  0  0  0  0  0  0  0  0  0  0  0
  111.5460   66.8563   37.4710 C   0  0  0  0  0  0  0  0  0  0  0  0
  111.1423   64.1558   39.9321 C   0  0  0  0  0  0  0  0  0  0  0  0
  111.9692   64.8398   38.8551 C   0  0  0  0  0  0  0  0  0  0  0  0
  110.2333   66.3318   39.5817 C   0  0  0  0  0  0  0  0  0  0  0  0
  106.6381   62.6767   44.3072 C   0  0  0  0  0  0  0  0  0  0  0  0
  110.5247   65.3307   40.7112 C   0  0  1  0  0  0  0  0  0  0  0  0
  110.7199   68.1094   37.3270 C   0  0  0  0  0  0  0  0  0  0  0  0
  111.2562   66.0734   38.5741 N   0  0  0  0  0  0  0  0  0  0  0  0
  112.4171   66.5851   36.6429 O   0  0  0  0  0  0  0  0  0  0  0  0
  106.1766   64.0113   44.0140 O   0  0  0  0  0  0  0  0  0  0  0  0
  107.8878   62.3504   43.6651 O   0  0  0  0  0  0  0  0  0  0  0  0
  109.4531   66.3724   35.5394 F   0  0  0  0  0  0  0  0  0  0  0  0
  111.7052   70.8716   36.3764 Cl  0  0  0  0  0  0  0  0  0  0  0  0
  109.8720   69.3405   32.1493 H   0  0  0  0  0  0  0  0  0  0  0  0
  108.4288   66.9618   41.3137 H   0  0  0  0  0  0  0  0  0  0  0  0
  106.4513   66.4542   42.7760 H   0  0  0  0  0  0  0  0  0  0  0  0
  109.1292   67.1408   33.0627 H   0  0  0  0  0  0  0  0  0  0  0  0
  111.0158   70.9862   33.6352 H   0  0  0  0  0  0  0  0  0  0  0  0
  110.0213   62.9891   42.0481 H   0  0  0  0  0  0  0  0  0  0  0  0
  110.3593   63.5253   39.4856 H   0  0  0  0  0  0  0  0  0  0  0  0
  111.7383   63.4856   40.5689 H   0  0  0  0  0  0  0  0  0  0  0  0
  112.9843   65.0528   39.2215 H   0  0  0  0  0  0  0  0  0  0  0  0
  112.0876   64.2130   37.9590 H   0  0  0  0  0  0  0  0  0  0  0  0
  109.2292   66.1632   39.1653 H   0  0  0  0  0  0  0  0  0  0  0  0
  110.2567   67.3728   39.9364 H   0  0  0  0  0  0  0  0  0  0  0  0
  106.7703   62.5843   45.3953 H   0  0  0  0  0  0  0  0  0  0  0  0
  105.8814   61.9783   43.9204 H   0  0  0  0  0  0  0  0  0  0  0  0
  111.2014   65.7146   41.4888 H   0  0  0  0  0  0  0  0  0  0  0  0
  111.2422   68.9378   37.8279 H   0  0  0  0  0  0  0  0  0  0  0  0
  109.7375   67.9214   37.7848 H   0  0  0  0  0  0  0  0  0  0  0  0
  1  4  2  0
  1  5  1  0
  2  3  2  0
  2  7  1  0
  3  9  1  0
  4 11  1  0
  5 12  2  0
  6  7  2  0
  6 10  1  0
  7 18  1  0
  8 11  2  0
  8 12  1  0
  8 19  1  0
  9 10  2  0
  9 22  1  0
 10 23  1  0
 11 24  1  0
 12 25  1  0
 13 19  1  0
 13 20  1  0
 13 21  2  0
 14 15  1  0
 14 18  1  0
 15 20  1  0
 16 18  1  0
 16 20  1  0
 17 22  1  0
 17 23  1  0
  1 26  1  0
  2 27  1  0
  3 28  1  0
  4 29  1  0
  5 30  1  0
  6 31  1  0
 14 32  1  0
 14 33  1  0
 15 34  1  0
 15 35  1  0
 16 36  1  0
 16 37  1  0
 17 38  1  0
 17 39  1  0
 18 40  1  1
 19 41  1  0
 19 42  1  0
M  END
>  <Name>  (62) 
CHEMBL4210008

>  <Comment>  (62) 
 Schrodinger Suite 2021-4.

>  <s_m_entry_id>  (62) 
1445

>  <s_m_Source_Path>  (62) 
C:\Users\vinicius\Desktop

>  <s_m_Source_File>  (62) 
Ligands_Saureus_failomega.smi

>  <i_m_Source_File_Index>  (62) 
11

>  <r_lp_tautomer_probability>  (62) 
1

>  <r_epik_Ionization_Penalty>  (62) 
0

>  <r_epik_State_Penalty>  (62) 
0

>  <i_epik_Tot_Q>  (62) 
0

>  <i_f3d_flags>  (62) 
0

>  <s_m_job_name>  (62) 
Saureus_fail

>  <class_value>  (62) 
0

>  <FRED Chemgauss4 score>  (62) 
-13.413186

>  <Set>  (62) 
training

>  <HBA count>  (62) 
3

>  <HBD count>  (62) 
0

>  <ExactMolWt>  (62) 
361.0880993040004

>  <NumRotatableBounds>  (62) 
3

>  <FractionCsp3>  (62) 
0.3157894736842105

>  <TPSA>  (62) 
38.77

>  <LogP_WildmanCrippen>  (62) 
3.7664000000000026

>  <General_Cluster>  (62) 
2

>  <Biological_Cluster>  (62) 
2

>  <Physicochemical_Cluster>  (62) 
3

>  <Structural_Cluster>  (62) 
3

$$$$
CHEMBL3322721
     RDKit          3D

 53 57  0  0  0  0  0  0  0  0999 V2000
  109.7475   69.3294   31.3750 C   0  0  0  0  0  0  0  0  0  0  0  0
  109.4802   68.0371   31.8257 C   0  0  0  0  0  0  0  0  0  0  0  0
  110.3238   70.2684   32.2331 C   0  0  0  0  0  0  0  0  0  0  0  0
  109.7873   67.6752   33.1366 C   0  0  0  0  0  0  0  0  0  0  0  0
  108.6563   63.5488   43.1180 C   0  0  0  0  0  0  0  0  0  0  0  0
  111.5105   70.4296   35.7564 C   0  0  0  0  0  0  0  0  0  0  0  0
  108.0282   65.7831   42.6131 C   0  0  0  0  0  0  0  0  0  0  0  0
  110.6397   69.9221   33.5563 C   0  0  0  0  0  0  0  0  0  0  0  0
  108.9080   64.7306   42.4321 C   0  0  0  0  0  0  0  0  0  0  0  0
  107.5333   63.4480   43.9405 C   0  0  0  0  0  0  0  0  0  0  0  0
  111.2185   70.8271   34.4562 C   0  0  0  0  0  0  0  0  0  0  0  0
  110.3645   68.6101   34.0016 C   0  0  0  0  0  0  0  0  0  0  0  0
  111.2195   69.1310   36.1395 C   0  0  0  0  0  0  0  0  0  0  0  0
  106.7024   64.5621   44.0534 C   0  0  0  0  0  0  0  0  0  0  0  0
  105.1223   63.3331   45.4949 C   0  0  0  0  0  0  0  0  0  0  0  0
  110.0485   64.8526   41.5426 C   0  0  0  0  0  0  0  0  0  0  0  0
  110.1897   65.7705   40.5573 C   0  0  0  0  0  0  0  0  0  0  0  0
  111.3653   65.8488   39.6714 C   0  0  0  0  0  0  0  0  0  0  0  0
  107.2763   62.2269   44.7705 C   0  0  0  0  0  0  0  0  0  0  0  0
  105.7880   62.0539   45.0297 C   0  0  0  0  0  0  0  0  0  0  0  0
  112.2838   67.2126   37.7152 C   0  0  0  0  0  0  0  0  0  0  0  0
  110.3439   67.8333   38.3414 C   0  0  0  0  0  0  0  0  0  0  0  0
  111.4967   68.5393   37.5845 C   0  0  0  0  0  0  0  0  0  0  0  0
  111.5427   72.2348   34.0669 C   0  0  0  0  0  0  0  0  0  0  0  0
  106.9386   65.7306   43.4114 N   0  0  0  0  0  0  0  0  0  0  0  0
  110.6663   68.2748   35.2702 N   0  0  0  0  0  4  0  0  0  0  0  0
  105.5770   64.4915   44.8966 N   0  0  0  0  0  0  0  0  0  0  0  0
  111.3245   66.8428   38.7377 N   0  0  0  0  0  0  0  0  0  0  0  0
  104.1768   63.3117   46.2829 O   0  0  0  0  0  0  0  0  0  0  0  0
  112.2881   65.0492   39.8057 O   0  0  0  0  0  0  0  0  0  0  0  0
  109.5035   69.6102   30.3398 H   0  0  0  0  0  0  0  0  0  0  0  0
  109.0260   67.3016   31.1454 H   0  0  0  0  0  0  0  0  0  0  0  0
  110.5315   71.2857   31.8699 H   0  0  0  0  0  0  0  0  0  0  0  0
  109.5758   66.6553   33.4901 H   0  0  0  0  0  0  0  0  0  0  0  0
  109.3409   62.6942   43.0130 H   0  0  0  0  0  0  0  0  0  0  0  0
  111.9648   71.1345   36.4683 H   0  0  0  0  0  0  0  0  0  0  0  0
  108.2278   66.7208   42.0739 H   0  0  0  0  0  0  0  0  0  0  0  0
  110.8712   64.1357   41.6813 H   0  0  0  0  0  0  0  0  0  0  0  0
  109.3800   66.5003   40.4093 H   0  0  0  0  0  0  0  0  0  0  0  0
  107.6548   61.3423   44.2374 H   0  0  0  0  0  0  0  0  0  0  0  0
  107.7914   62.3417   45.7357 H   0  0  0  0  0  0  0  0  0  0  0  0
  105.6529   61.2850   45.8047 H   0  0  0  0  0  0  0  0  0  0  0  0
  105.3173   61.7613   44.0795 H   0  0  0  0  0  0  0  0  0  0  0  0
  112.2702   66.5770   36.8175 H   0  0  0  0  0  0  0  0  0  0  0  0
  113.3689   67.1904   37.8945 H   0  0  0  0  0  0  0  0  0  0  0  0
  109.9120   68.4133   39.1703 H   0  0  0  0  0  0  0  0  0  0  0  0
  109.4003   67.5585   37.8472 H   0  0  0  0  0  0  0  0  0  0  0  0
  111.9149   69.4966   37.9291 H   0  0  0  0  0  0  0  0  0  0  0  0
  111.6827   72.8428   34.9729 H   0  0  0  0  0  0  0  0  0  0  0  0
  112.4671   72.2467   33.4708 H   0  0  0  0  0  0  0  0  0  0  0  0
  110.7166   72.6499   33.4708 H   0  0  0  0  0  0  0  0  0  0  0  0
  110.4625   67.3161   35.5868 H   0  0  0  0  0  0  0  0  0  0  0  0
  105.0582   65.3623   45.0794 H   0  0  0  0  0  0  0  0  0  0  0  0
  1  2  2  0
  1  3  1  0
  2  4  1  0
  3  8  2  0
  4 12  2  0
  5  9  2  0
  5 10  1  0
  6 11  2  0
  6 13  1  0
  7  9  1  0
  7 25  2  0
  8 11  1  0
  8 12  1  0
  9 16  1  0
 10 14  2  0
 10 19  1  0
 11 24  1  0
 12 26  1  0
 13 23  1  0
 13 26  2  0
 14 25  1  0
 14 27  1  0
 15 20  1  0
 15 27  1  0
 15 29  2  0
 16 17  2  0
 17 18  1  0
 18 28  1  0
 18 30  2  0
 19 20  1  0
 21 23  1  0
 21 28  1  0
 22 23  1  0
 22 28  1  0
  1 31  1  0
  2 32  1  0
  3 33  1  0
  4 34  1  0
  5 35  1  0
  6 36  1  0
  7 37  1  0
 16 38  1  0
 17 39  1  0
 19 40  1  0
 19 41  1  0
 20 42  1  0
 20 43  1  0
 21 44  1  0
 21 45  1  0
 22 46  1  0
 22 47  1  0
 23 48  1  0
 24 49  1  0
 24 50  1  0
 24 51  1  0
 26 52  1  0
 27 53  1  0
M  CHG  1  26   1
M  END
>  <Name>  (63) 
CHEMBL3322721

>  <Comment>  (63) 
 Schrodinger Suite 2021-4.

>  <s_m_entry_id>  (63) 
1144

>  <class_value>  (63) 
1

>  <s_m_Source_Path>  (63) 
C:\Users\vinicius\Desktop

>  <s_m_Source_File>  (63) 
Ligands_Saureus_o.sdf

>  <i_m_Source_File_Index>  (63) 
56

>  <r_epik_Ionization_Penalty>  (63) 
1.3288

>  <r_epik_State_Penalty>  (63) 
1.4048

>  <i_epik_Tot_Q>  (63) 
1

>  <i_f3d_flags>  (63) 
0

>  <s_m_job_name>  (63) 
Saureus_o

>  <FRED Chemgauss4 score>  (63) 
-14.641528

>  <Set>  (63) 
training

>  <HBA count>  (63) 
3

>  <HBD count>  (63) 
1

>  <ExactMolWt>  (63) 
399.1815523960907

>  <NumRotatableBounds>  (63) 
4

>  <FractionCsp3>  (63) 
0.25

>  <TPSA>  (63) 
76.44

>  <LogP_WildmanCrippen>  (63) 
2.8812200000000017

>  <General_Cluster>  (63) 
1

>  <Biological_Cluster>  (63) 
1

>  <Physicochemical_Cluster>  (63) 
1

>  <Structural_Cluster>  (63) 
2

$$$$
CHEMBL435896
     RDKit          3D

 41 43  0  0  0  0  0  0  0  0999 V2000
  111.9633   72.1749   33.5609 C   0  0  0  0  0  0  0  0  0  0  0  0
  112.0869   71.6713   32.2675 C   0  0  0  0  0  0  0  0  0  0  0  0
  111.3868   71.4046   34.5775 C   0  0  0  0  0  0  0  0  0  0  0  0
  111.6229   67.0117   38.1146 C   0  0  0  0  0  0  0  0  0  0  0  0
  111.2805   64.6636   38.5686 C   0  0  0  0  0  0  0  0  0  0  0  0
  111.6402   70.3858   31.9488 C   0  0  0  0  0  0  0  0  0  0  0  0
  112.0307   67.2074   39.4340 C   0  0  0  0  0  0  0  0  0  0  0  0
  111.6883   64.8593   39.8881 C   0  0  0  0  0  0  0  0  0  0  0  0
  110.3107   69.0739   35.0402 C   0  0  0  0  0  0  0  0  0  0  0  0
  110.9291   70.1056   34.2799 C   0  0  0  0  0  0  0  0  0  0  0  0
  111.2478   65.7398   37.6819 C   0  0  0  0  0  0  0  0  0  0  0  0
  111.0660   69.6272   32.9750 C   0  0  0  0  0  0  0  0  0  0  0  0
  112.0634   66.1312   40.3208 C   0  0  0  0  0  0  0  0  0  0  0  0
  110.0880   68.0091   34.1979 C   0  0  0  0  0  0  0  0  0  0  0  0
  110.8175   65.5333   36.2899 C   0  0  0  0  0  0  0  0  0  0  0  0
  110.4957   67.4976   31.7858 C   0  0  0  0  0  0  0  0  0  0  0  0
  108.6485   66.5854   36.8022 C   0  0  0  0  0  0  0  0  0  0  0  0
  109.4748   66.6942   34.4775 C   0  0  0  0  0  0  0  0  0  0  0  0
  110.5472   68.3522   32.9545 N   0  0  0  0  0  0  0  0  0  0  0  0
  112.4758   66.3291   41.6549 N   0  0  0  0  0  0  0  0  0  0  0  0
  109.6943   66.2497   35.8362 N   0  0  0  0  0  0  0  0  0  0  0  0
  111.4909   64.7489   35.6225 O   0  0  0  0  0  0  0  0  0  0  0  0
  112.3231   73.1898   33.7856 H   0  0  0  0  0  0  0  0  0  0  0  0
  112.5432   72.2953   31.4850 H   0  0  0  0  0  0  0  0  0  0  0  0
  111.2922   71.8084   35.5963 H   0  0  0  0  0  0  0  0  0  0  0  0
  111.5971   67.8604   37.4153 H   0  0  0  0  0  0  0  0  0  0  0  0
  110.9847   63.6606   38.2273 H   0  0  0  0  0  0  0  0  0  0  0  0
  111.7365   69.9852   30.9289 H   0  0  0  0  0  0  0  0  0  0  0  0
  112.3265   68.2104   39.7752 H   0  0  0  0  0  0  0  0  0  0  0  0
  111.7141   64.0106   40.5874 H   0  0  0  0  0  0  0  0  0  0  0  0
  110.0564   69.1195   36.1094 H   0  0  0  0  0  0  0  0  0  0  0  0
  110.4323   66.4462   32.1029 H   0  0  0  0  0  0  0  0  0  0  0  0
  109.6113   67.7529   31.1836 H   0  0  0  0  0  0  0  0  0  0  0  0
  111.4043   67.6448   31.1836 H   0  0  0  0  0  0  0  0  0  0  0  0
  109.0385   66.4602   37.8231 H   0  0  0  0  0  0  0  0  0  0  0  0
  108.3348   67.6294   36.6550 H   0  0  0  0  0  0  0  0  0  0  0  0
  107.7858   65.9191   36.6550 H   0  0  0  0  0  0  0  0  0  0  0  0
  108.3913   66.7677   34.3027 H   0  0  0  0  0  0  0  0  0  0  0  0
  109.9478   65.9599   33.8089 H   0  0  0  0  0  0  0  0  0  0  0  0
  112.5000   65.5344   42.3097 H   0  0  0  0  0  0  0  0  0  0  0  0
  112.7528   67.2683   41.9744 H   0  0  0  0  0  0  0  0  0  0  0  0
  1  2  2  0
  1  3  1  0
  2  6  1  0
  3 10  2  0
  4  7  2  0
  4 11  1  0
  5  8  1  0
  5 11  2  0
  6 12  2  0
  7 13  1  0
  8 13  2  0
  9 10  1  0
  9 14  2  0
 10 12  1  0
 11 15  1  0
 12 19  1  0
 13 20  1  0
 14 18  1  0
 14 19  1  0
 15 21  1  0
 15 22  2  0
 16 19  1  0
 17 21  1  0
 18 21  1  0
  1 23  1  0
  2 24  1  0
  3 25  1  0
  4 26  1  0
  5 27  1  0
  6 28  1  0
  7 29  1  0
  8 30  1  0
  9 31  1  0
 16 32  1  0
 16 33  1  0
 16 34  1  0
 17 35  1  0
 17 36  1  0
 17 37  1  0
 18 38  1  0
 18 39  1  0
 20 40  1  0
 20 41  1  0
M  END
>  <Name>  (64) 
CHEMBL435896

>  <Comment>  (64) 
 Schrodinger Suite 2021-4.

>  <s_m_entry_id>  (64) 
1273

>  <class_value>  (64) 
0

>  <s_m_Source_Path>  (64) 
C:\Users\vinicius\Desktop

>  <s_m_Source_File>  (64) 
Ligands_Saureus_o.sdf

>  <i_m_Source_File_Index>  (64) 
160

>  <r_lp_tautomer_probability>  (64) 
1

>  <r_epik_Ionization_Penalty>  (64) 
0.0001

>  <r_epik_State_Penalty>  (64) 
0

>  <i_epik_Tot_Q>  (64) 
0

>  <i_f3d_flags>  (64) 
0

>  <s_m_job_name>  (64) 
Saureus_o

>  <FRED Chemgauss4 score>  (64) 
-13.983603

>  <Set>  (64) 
training

>  <HBA count>  (64) 
3

>  <HBD count>  (64) 
1

>  <ExactMolWt>  (64) 
293.1528122280005

>  <NumRotatableBounds>  (64) 
6

>  <FractionCsp3>  (64) 
0.16666666666666666

>  <TPSA>  (64) 
51.26

>  <LogP_WildmanCrippen>  (64) 
3.0327

>  <General_Cluster>  (64) 
2

>  <Biological_Cluster>  (64) 
2

>  <Physicochemical_Cluster>  (64) 
1

>  <Structural_Cluster>  (64) 
3

$$$$
CHEMBL304029
     RDKit          3D

 31 33  0  0  0  0  0  0  0  0999 V2000
  110.7666   70.8894   34.4929 C   0  0  0  0  0  0  0  0  0  0  0  0
  111.3009   69.9590   32.3283 C   0  0  0  0  0  0  0  0  0  0  0  0
  110.1075   69.7094   34.8375 C   0  0  0  0  0  0  0  0  0  0  0  0
  110.6418   68.7789   32.6728 C   0  0  0  0  0  0  0  0  0  0  0  0
  112.1890   64.5807   38.9510 C   0  0  0  0  0  0  0  0  0  0  0  0
  110.8579   65.3569   34.8884 C   0  0  0  0  0  0  0  0  0  0  0  0
  112.3623   64.7151   40.3109 C   0  0  0  0  0  0  0  0  0  0  0  0
  110.9503   66.5003   39.3789 C   0  0  0  0  0  0  0  0  0  0  0  0
  111.3712   65.6150   38.4109 C   0  0  0  0  0  0  0  0  0  0  0  0
  111.3633   71.0142   33.2383 C   0  0  0  0  0  0  0  0  0  0  0  0
  110.0451   68.6541   33.9275 C   0  0  0  0  0  0  0  0  0  0  0  0
  110.1443   66.4852   35.2083 C   0  0  0  0  0  0  0  0  0  0  0  0
  110.9967   65.7530   36.9860 C   0  0  0  0  0  0  0  0  0  0  0  0
  112.0681   72.2755   32.8691 C   0  0  0  0  0  0  0  0  0  0  0  0
  109.3417   67.3921   34.2973 C   0  0  0  0  0  0  0  0  0  0  0  0
  110.2368   66.7338   36.5539 N   0  0  0  0  0  0  0  0  0  0  0  0
  111.4146   64.8743   36.0341 O   0  0  0  0  0  0  0  0  0  0  0  0
  111.5408   66.0836   40.9312 S   0  0  0  0  0  0  0  0  0  0  0  0
  110.8158   71.7216   35.2106 H   0  0  0  0  0  0  0  0  0  0  0  0
  111.7715   70.0574   31.3389 H   0  0  0  0  0  0  0  0  0  0  0  0
  109.6369   69.6110   35.8269 H   0  0  0  0  0  0  0  0  0  0  0  0
  110.5926   67.9467   31.9551 H   0  0  0  0  0  0  0  0  0  0  0  0
  112.6301   63.7701   38.3523 H   0  0  0  0  0  0  0  0  0  0  0  0
  110.9618   64.9198   33.8843 H   0  0  0  0  0  0  0  0  0  0  0  0
  112.9582   64.0247   40.9259 H   0  0  0  0  0  0  0  0  0  0  0  0
  110.3103   67.3721   39.1782 H   0  0  0  0  0  0  0  0  0  0  0  0
  112.3666   72.8098   33.7831 H   0  0  0  0  0  0  0  0  0  0  0  0
  112.9628   72.0354   32.2759 H   0  0  0  0  0  0  0  0  0  0  0  0
  111.3947   72.9117   32.2759 H   0  0  0  0  0  0  0  0  0  0  0  0
  108.4044   67.6554   34.8093 H   0  0  0  0  0  0  0  0  0  0  0  0
  109.1715   66.8364   33.3634 H   0  0  0  0  0  0  0  0  0  0  0  0
  1  3  2  0
  1 10  1  0
  2  4  1  0
  2 10  2  0
  3 11  1  0
  4 11  2  0
  5  7  2  0
  5  9  1  0
  6 12  2  0
  6 17  1  0
  7 18  1  0
  8  9  2  0
  8 18  1  0
  9 13  1  0
 10 14  1  0
 11 15  1  0
 12 15  1  0
 12 16  1  0
 13 16  2  0
 13 17  1  0
  1 19  1  0
  2 20  1  0
  3 21  1  0
  4 22  1  0
  5 23  1  0
  6 24  1  0
  7 25  1  0
  8 26  1  0
 14 27  1  0
 14 28  1  0
 14 29  1  0
 15 30  1  0
 15 31  1  0
M  END
>  <Name>  (65) 
CHEMBL304029

>  <Comment>  (65) 
 Schrodinger Suite 2021-4.

>  <s_m_entry_id>  (65) 
1330

>  <class_value>  (65) 
0

>  <s_m_Source_Path>  (65) 
C:\Users\vinicius\Desktop

>  <s_m_Source_File>  (65) 
Ligands_Saureus_o.sdf

>  <i_m_Source_File_Index>  (65) 
195

>  <r_lp_tautomer_probability>  (65) 
1

>  <r_epik_Ionization_Penalty>  (65) 
0

>  <r_epik_State_Penalty>  (65) 
0

>  <i_epik_Tot_Q>  (65) 
0

>  <i_f3d_flags>  (65) 
0

>  <s_m_job_name>  (65) 
Saureus_o

>  <FRED Chemgauss4 score>  (65) 
-12.280039

>  <Set>  (65) 
training

>  <HBA count>  (65) 
3

>  <HBD count>  (65) 
0

>  <ExactMolWt>  (65) 
255.071785036

>  <NumRotatableBounds>  (65) 
4

>  <FractionCsp3>  (65) 
0.13333333333333333

>  <TPSA>  (65) 
26.03

>  <LogP_WildmanCrippen>  (65) 
4.302320000000003

>  <General_Cluster>  (65) 
4

>  <Biological_Cluster>  (65) 
2

>  <Physicochemical_Cluster>  (65) 
3

>  <Structural_Cluster>  (65) 
1

$$$$
CHEMBL3623411
     RDKit          3D

 33 35  0  0  0  0  0  0  0  0999 V2000
  110.0596   65.8516   35.2072 C   0  0  0  0  0  0  0  0  0  0  0  0
  110.6917   65.9405   36.4474 C   0  0  0  0  0  0  0  0  0  0  0  0
  109.8415   67.0034   34.4513 C   0  0  0  0  0  0  0  0  0  0  0  0
  106.5936   62.6422   43.9280 C   0  0  0  0  0  0  0  0  0  0  0  0
  105.8632   62.7624   45.0874 C   0  0  0  0  0  0  0  0  0  0  0  0
  106.8382   64.6877   44.7839 C   0  0  0  0  0  0  0  0  0  0  0  0
  107.2269   63.8925   43.7310 C   0  0  0  0  0  0  0  0  0  0  0  0
  111.1056   67.1813   36.9318 C   0  0  0  0  0  0  0  0  0  0  0  0
  110.2554   68.2442   34.9357 C   0  0  0  0  0  0  0  0  0  0  0  0
  110.8875   68.3332   36.1759 C   0  0  0  0  0  0  0  0  0  0  0  0
  110.7001   65.2128   41.1866 C   0  0  0  0  0  0  0  0  0  0  0  0
  109.8413   67.3253   39.5989 C   0  0  0  0  0  0  0  0  0  0  0  0
  111.0077   66.7796   39.2341 C   0  0  0  0  0  0  0  0  0  0  0  0
  109.5553   65.8619   41.4212 C   0  0  0  0  0  0  0  0  0  0  0  0
  111.5280   65.6460   40.0366 C   0  0  0  0  0  0  0  0  0  0  0  0
  108.1250   64.2986   42.6361 C   0  0  0  0  0  0  0  0  0  0  0  0
  108.6909   65.5076   42.5149 C   0  0  0  0  0  0  0  0  0  0  0  0
  112.5874   65.0916   39.7686 O   0  0  0  0  0  0  0  0  0  0  0  0
  106.0068   64.0063   45.6152 O   0  0  0  0  0  0  0  0  0  0  0  0
  109.0804   66.9145   40.6678 O   0  0  0  0  0  0  0  0  0  0  0  0
  111.7230   67.2323   38.1517 O   0  0  0  0  0  0  0  0  0  0  0  0
  109.9532   69.6318   33.9485 Cl  0  0  0  0  0  0  0  0  0  0  0  0
  111.4148   69.8596   36.8073 Cl  0  0  0  0  0  0  0  0  0  0  0  0
  109.7331   64.8731   34.8252 H   0  0  0  0  0  0  0  0  0  0  0  0
  110.8638   65.0321   37.0434 H   0  0  0  0  0  0  0  0  0  0  0  0
  109.3431   66.9332   33.4732 H   0  0  0  0  0  0  0  0  0  0  0  0
  106.6700   61.7537   43.2840 H   0  0  0  0  0  0  0  0  0  0  0  0
  105.2484   61.9628   45.5263 H   0  0  0  0  0  0  0  0  0  0  0  0
  107.1561   65.7302   44.9323 H   0  0  0  0  0  0  0  0  0  0  0  0
  111.0190   64.3795   41.8300 H   0  0  0  0  0  0  0  0  0  0  0  0
  109.4630   68.1657   38.9983 H   0  0  0  0  0  0  0  0  0  0  0  0
  108.3482   63.5529   41.8589 H   0  0  0  0  0  0  0  0  0  0  0  0
  108.4848   66.2634   43.2871 H   0  0  0  0  0  0  0  0  0  0  0  0
  1  2  2  0
  1  3  1  0
  2  8  1  0
  3  9  2  0
  4  5  2  0
  4  7  1  0
  5 19  1  0
  6  7  2  0
  6 19  1  0
  7 16  1  0
  8 10  2  0
  8 21  1  0
  9 10  1  0
  9 22  1  0
 10 23  1  0
 11 14  2  0
 11 15  1  0
 12 13  2  0
 12 20  1  0
 13 15  1  0
 13 21  1  0
 14 17  1  0
 14 20  1  0
 15 18  2  0
 16 17  2  0
  1 24  1  0
  2 25  1  0
  3 26  1  0
  4 27  1  0
  5 28  1  0
  6 29  1  0
 11 30  1  0
 12 31  1  0
 16 32  1  0
 17 33  1  0
M  END
>  <Name>  (66) 
CHEMBL3623411

>  <Comment>  (66) 
 Schrodinger Suite 2021-4.

>  <s_m_entry_id>  (66) 
1253

>  <class_value>  (66) 
0

>  <s_m_Source_Path>  (66) 
C:\Users\vinicius\Desktop

>  <s_m_Source_File>  (66) 
Ligands_Saureus_o.sdf

>  <i_m_Source_File_Index>  (66) 
145

>  <r_lp_tautomer_probability>  (66) 
1

>  <r_epik_Ionization_Penalty>  (66) 
0

>  <r_epik_State_Penalty>  (66) 
0

>  <i_epik_Tot_Q>  (66) 
0

>  <i_f3d_flags>  (66) 
0

>  <s_m_job_name>  (66) 
Saureus_o

>  <FRED Chemgauss4 score>  (66) 
-11.560758

>  <Set>  (66) 
training

>  <HBA count>  (66) 
4

>  <HBD count>  (66) 
0

>  <ExactMolWt>  (66) 
347.9956141600003

>  <NumRotatableBounds>  (66) 
4

>  <FractionCsp3>  (66) 
0.0

>  <TPSA>  (66) 
52.58

>  <LogP_WildmanCrippen>  (66) 
5.502300000000002

>  <General_Cluster>  (66) 
4

>  <Biological_Cluster>  (66) 
2

>  <Physicochemical_Cluster>  (66) 
3

>  <Structural_Cluster>  (66) 
1

$$$$
CHEMBL65913
     RDKit          3D

 33 35  0  0  0  0  0  0  0  0999 V2000
  109.7096   69.6856   34.4781 C   0  0  0  0  0  0  0  0  0  0  0  0
  110.5937   68.7170   32.4490 C   0  0  0  0  0  0  0  0  0  0  0  0
  110.3518   70.8883   34.1838 C   0  0  0  0  0  0  0  0  0  0  0  0
  111.2358   69.9198   32.1546 C   0  0  0  0  0  0  0  0  0  0  0  0
  111.7319   64.6326   38.7646 C   0  0  0  0  0  0  0  0  0  0  0  0
  109.7755   66.8201   36.3222 C   0  0  0  0  0  0  0  0  0  0  0  0
  111.8616   64.6461   40.1360 C   0  0  0  0  0  0  0  0  0  0  0  0
  110.3813   66.4376   39.3304 C   0  0  0  0  0  0  0  0  0  0  0  0
  110.6584   65.4899   34.8031 C   0  0  0  0  0  0  0  0  0  0  0  0
  110.8745   65.6704   38.2978 C   0  0  0  0  0  0  0  0  0  0  0  0
  109.8306   68.5999   33.6107 C   0  0  0  0  0  0  0  0  0  0  0  0
  111.1148   71.0055   33.0221 C   0  0  0  0  0  0  0  0  0  0  0  0
  110.5798   65.8645   36.8969 C   0  0  0  0  0  0  0  0  0  0  0  0
  111.5731   73.2491   33.6639 C   0  0  0  0  0  0  0  0  0  0  0  0
  109.1437   67.3141   33.9249 C   0  0  0  0  0  0  0  0  0  0  0  0
  111.1267   65.0397   35.9460 N   0  0  0  0  0  0  0  0  0  0  0  0
  109.8362   66.5677   34.9806 N   0  0  0  0  0  0  0  0  0  0  0  0
  111.7403   72.1796   32.7344 O   0  0  0  0  0  0  0  0  0  0  0  0
  110.9519   65.9062   40.8549 S   0  0  0  0  0  0  0  0  0  0  0  0
  109.1077   69.5933   35.3942 H   0  0  0  0  0  0  0  0  0  0  0  0
  110.6891   67.8608   31.7650 H   0  0  0  0  0  0  0  0  0  0  0  0
  110.2565   71.7444   34.8679 H   0  0  0  0  0  0  0  0  0  0  0  0
  111.8375   70.0122   31.2384 H   0  0  0  0  0  0  0  0  0  0  0  0
  112.2316   63.9059   38.1071 H   0  0  0  0  0  0  0  0  0  0  0  0
  109.2079   67.6134   36.8306 H   0  0  0  0  0  0  0  0  0  0  0  0
  112.4770   63.9317   40.7025 H   0  0  0  0  0  0  0  0  0  0  0  0
  109.7011   67.2909   39.1918 H   0  0  0  0  0  0  0  0  0  0  0  0
  110.8989   65.0525   33.8229 H   0  0  0  0  0  0  0  0  0  0  0  0
  111.6345   72.8564   34.6896 H   0  0  0  0  0  0  0  0  0  0  0  0
  112.3653   73.9964   33.5094 H   0  0  0  0  0  0  0  0  0  0  0  0
  110.5906   73.7190   33.5094 H   0  0  0  0  0  0  0  0  0  0  0  0
  108.1177   67.5310   34.2572 H   0  0  0  0  0  0  0  0  0  0  0  0
  109.1436   66.6964   33.0147 H   0  0  0  0  0  0  0  0  0  0  0  0
  1  3  2  0
  1 11  1  0
  2  4  1  0
  2 11  2  0
  3 12  1  0
  4 12  2  0
  5  7  2  0
  5 10  1  0
  6 13  2  0
  6 17  1  0
  7 19  1  0
  8 10  2  0
  8 19  1  0
  9 16  2  0
  9 17  1  0
 10 13  1  0
 11 15  1  0
 12 18  1  0
 13 16  1  0
 14 18  1  0
 15 17  1  0
  1 20  1  0
  2 21  1  0
  3 22  1  0
  4 23  1  0
  5 24  1  0
  6 25  1  0
  7 26  1  0
  8 27  1  0
  9 28  1  0
 14 29  1  0
 14 30  1  0
 14 31  1  0
 15 32  1  0
 15 33  1  0
M  END
>  <Name>  (67) 
CHEMBL65913

>  <Comment>  (67) 
 Schrodinger Suite 2021-4.

>  <s_m_entry_id>  (67) 
1325

>  <class_value>  (67) 
0

>  <s_m_Source_Path>  (67) 
C:\Users\vinicius\Desktop

>  <s_m_Source_File>  (67) 
Ligands_Saureus_o.sdf

>  <i_m_Source_File_Index>  (67) 
193

>  <r_lp_tautomer_probability>  (67) 
1

>  <r_epik_Ionization_Penalty>  (67) 
0.316

>  <r_epik_State_Penalty>  (67) 
0.3102

>  <i_epik_Tot_Q>  (67) 
0

>  <i_f3d_flags>  (67) 
0

>  <s_m_job_name>  (67) 
Saureus_o

>  <FRED Chemgauss4 score>  (67) 
-12.843767

>  <Set>  (67) 
training

>  <HBA count>  (67) 
4

>  <HBD count>  (67) 
0

>  <ExactMolWt>  (67) 
270.0826840680004

>  <NumRotatableBounds>  (67) 
5

>  <FractionCsp3>  (67) 
0.13333333333333333

>  <TPSA>  (67) 
27.05

>  <LogP_WildmanCrippen>  (67) 
3.6685000000000025

>  <General_Cluster>  (67) 
4

>  <Biological_Cluster>  (67) 
2

>  <Physicochemical_Cluster>  (67) 
3

>  <Structural_Cluster>  (67) 
1

$$$$
CHEMBL576646
     RDKit          3D

 56 59  0  0  0  0  0  0  0  0999 V2000
  111.7899   72.8190   35.4824 C   0  0  0  0  0  0  0  0  0  0  0  0
  112.0718   72.1896   36.6976 C   0  0  0  0  0  0  0  0  0  0  0  0
  111.1433   72.1325   34.4455 C   0  0  0  0  0  0  0  0  0  0  0  0
  111.7196   70.8554   36.9220 C   0  0  0  0  0  0  0  0  0  0  0  0
  109.9671   66.6236   39.3842 C   0  0  0  0  0  0  0  0  0  0  0  0
  112.2471   66.4779   39.9489 C   0  0  0  0  0  0  0  0  0  0  0  0
  110.7797   70.7899   34.6495 C   0  0  0  0  0  0  0  0  0  0  0  0
  111.2777   66.4365   38.9767 C   0  0  0  0  0  0  0  0  0  0  0  0
  109.6468   66.8502   40.7372 C   0  0  0  0  0  0  0  0  0  0  0  0
  110.1356   69.7838   33.8822 C   0  0  0  0  0  0  0  0  0  0  0  0
  111.0779   70.1992   35.8732 C   0  0  0  0  0  0  0  0  0  0  0  0
  110.0843   68.6626   34.6777 C   0  0  0  0  0  0  0  0  0  0  0  0
  110.6986   66.8716   41.6699 C   0  0  0  0  0  0  0  0  0  0  0  0
  111.6122   66.2065   37.5840 C   0  0  0  0  0  0  0  0  0  0  0  0
  110.7515   65.7735   36.6320 C   0  0  0  0  0  0  0  0  0  0  0  0
  111.2264   65.5429   35.2358 C   0  0  0  0  0  0  0  0  0  0  0  0
  108.1913   67.0335   41.0688 C   0  0  0  0  0  0  0  0  0  0  0  0
  108.5111   66.1095   44.0633 C   0  0  0  0  0  0  0  0  0  0  0  0
  109.3872   67.3351   43.8166 C   0  0  0  0  0  0  0  0  0  0  0  0
  108.2206   65.1962   42.8815 C   0  0  0  0  0  0  0  0  0  0  0  0
  109.6217   69.9120   32.5051 C   0  0  0  0  0  0  0  0  0  0  0  0
  110.9915   66.1127   32.8490 C   0  0  0  0  0  0  0  0  0  0  0  0
  109.5407   67.2784   34.4713 C   0  0  0  0  0  0  0  0  0  0  0  0
  111.9865   66.6851   41.2573 N   0  0  0  0  0  0  0  0  0  0  0  0
  110.5655   67.0481   43.0299 N   0  0  0  0  0  0  0  0  0  0  0  0
  110.6038   66.3020   34.2409 N   0  0  0  0  0  0  0  0  0  0  0  0
  107.5173   65.8923   41.7678 N   0  0  0  0  0  4  0  0  0  0  0  0
  112.1015   64.7037   35.0179 O   0  0  0  0  0  0  0  0  0  0  0  0
  110.6535   68.9042   35.8874 O   0  0  0  0  0  0  0  0  0  0  0  0
  112.0801   73.8701   35.3372 H   0  0  0  0  0  0  0  0  0  0  0  0
  112.5804   72.7545   37.4927 H   0  0  0  0  0  0  0  0  0  0  0  0
  110.9247   72.6342   33.4913 H   0  0  0  0  0  0  0  0  0  0  0  0
  111.9372   70.3508   37.8749 H   0  0  0  0  0  0  0  0  0  0  0  0
  109.1606   66.5947   38.6367 H   0  0  0  0  0  0  0  0  0  0  0  0
  113.2943   66.3342   39.6444 H   0  0  0  0  0  0  0  0  0  0  0  0
  112.6503   66.3996   37.2757 H   0  0  0  0  0  0  0  0  0  0  0  0
  109.6976   65.5909   36.8890 H   0  0  0  0  0  0  0  0  0  0  0  0
  108.1045   67.9196   41.7148 H   0  0  0  0  0  0  0  0  0  0  0  0
  107.6803   67.1242   40.0989 H   0  0  0  0  0  0  0  0  0  0  0  0
  109.0072   65.5012   44.8340 H   0  0  0  0  0  0  0  0  0  0  0  0
  107.5303   66.5216   44.3429 H   0  0  0  0  0  0  0  0  0  0  0  0
  108.7890   68.0906   43.2861 H   0  0  0  0  0  0  0  0  0  0  0  0
  109.7308   67.6923   44.7986 H   0  0  0  0  0  0  0  0  0  0  0  0
  109.1740   64.8007   42.5013 H   0  0  0  0  0  0  0  0  0  0  0  0
  107.5577   64.3948   43.2398 H   0  0  0  0  0  0  0  0  0  0  0  0
  108.5548   70.1782   32.5352 H   0  0  0  0  0  0  0  0  0  0  0  0
  110.1810   70.6982   31.9767 H   0  0  0  0  0  0  0  0  0  0  0  0
  109.7462   68.9553   31.9767 H   0  0  0  0  0  0  0  0  0  0  0  0
  111.9792   65.6304   32.8058 H   0  0  0  0  0  0  0  0  0  0  0  0
  110.2499   65.4753   32.3452 H   0  0  0  0  0  0  0  0  0  0  0  0
  111.0380   67.0895   32.3452 H   0  0  0  0  0  0  0  0  0  0  0  0
  108.9741   66.9821   35.3664 H   0  0  0  0  0  0  0  0  0  0  0  0
  108.8959   67.2957   33.5803 H   0  0  0  0  0  0  0  0  0  0  0  0
  111.4393   66.9624   43.5684 H   0  0  0  0  0  0  0  0  0  0  0  0
  106.6338   66.2562   42.1524 H   0  0  0  0  0  0  0  0  0  0  0  0
  107.4457   65.1695   41.0375 H   0  0  0  0  0  0  0  0  0  0  0  0
  1  2  2  0
  1  3  1  0
  2  4  1  0
  3  7  2  0
  4 11  2  0
  5  8  2  0
  5  9  1  0
  6  8  1  0
  6 24  2  0
  7 10  1  0
  7 11  1  0
  8 14  1  0
  9 13  2  0
  9 17  1  0
 10 12  2  0
 10 21  1  0
 11 29  1  0
 12 23  1  0
 12 29  1  0
 13 24  1  0
 13 25  1  0
 14 15  2  0
 15 16  1  0
 16 26  1  0
 16 28  2  0
 17 27  1  0
 18 19  1  0
 18 20  1  0
 19 25  1  0
 20 27  1  0
 22 26  1  0
 23 26  1  0
  1 30  1  0
  2 31  1  0
  3 32  1  0
  4 33  1  0
  5 34  1  0
  6 35  1  0
 14 36  1  0
 15 37  1  0
 17 38  1  0
 17 39  1  0
 18 40  1  0
 18 41  1  0
 19 42  1  0
 19 43  1  0
 20 44  1  0
 20 45  1  0
 21 46  1  0
 21 47  1  0
 21 48  1  0
 22 49  1  0
 22 50  1  0
 22 51  1  0
 23 52  1  0
 23 53  1  0
 25 54  1  0
 27 55  1  0
 27 56  1  0
M  CHG  1  27   1
M  END
>  <Name>  (68) 
CHEMBL576646

>  <Comment>  (68) 
 Schrodinger Suite 2021-4.

>  <s_m_entry_id>  (68) 
1339

>  <class_value>  (68) 
1

>  <s_m_Source_Path>  (68) 
C:\Users\vinicius\Desktop

>  <s_m_Source_File>  (68) 
Ligands_Saureus_o.sdf

>  <i_m_Source_File_Index>  (68) 
200

>  <r_epik_Ionization_Penalty>  (68) 
0.0355

>  <r_epik_State_Penalty>  (68) 
0.0226

>  <i_epik_Tot_Q>  (68) 
1

>  <i_f3d_flags>  (68) 
0

>  <s_m_job_name>  (68) 
Saureus_o

>  <FRED Chemgauss4 score>  (68) 
-20.586254

>  <Set>  (68) 
training

>  <HBA count>  (68) 
4

>  <HBD count>  (68) 
2

>  <ExactMolWt>  (68) 
391.2128525240908

>  <NumRotatableBounds>  (68) 
6

>  <FractionCsp3>  (68) 
0.30434782608695654

>  <TPSA>  (68) 
74.98

>  <LogP_WildmanCrippen>  (68) 
2.6870200000000004

>  <General_Cluster>  (68) 
1

>  <Biological_Cluster>  (68) 
1

>  <Physicochemical_Cluster>  (68) 
1

>  <Structural_Cluster>  (68) 
2

$$$$
CHEMBL4217852
     RDKit          3D

 50 52  0  0  1  0  0  0  0  0999 V2000
  111.7135   65.6164   40.6024 C   0  0  0  0  0  0  0  0  0  0  0  0
  109.6811   70.4324   32.6586 C   0  0  0  0  0  0  0  0  0  0  0  0
  111.3047   69.6234   34.2543 C   0  0  0  0  0  0  0  0  0  0  0  0
  110.3547   71.6519   32.5914 C   0  0  0  0  0  0  0  0  0  0  0  0
  111.9784   70.8429   34.1871 C   0  0  0  0  0  0  0  0  0  0  0  0
  111.2148   65.8326   41.8822 C   0  0  0  0  0  0  0  0  0  0  0  0
  109.8265   66.7706   39.7285 C   0  0  0  0  0  0  0  0  0  0  0  0
  111.0121   66.0912   39.4997 C   0  0  0  0  0  0  0  0  0  0  0  0
  110.1560   69.4181   33.4901 C   0  0  0  0  0  0  0  0  0  0  0  0
  111.5034   71.8572   33.3557 C   0  0  0  0  0  0  0  0  0  0  0  0
  110.0202   66.5238   42.0044 C   0  0  0  0  0  0  0  0  0  0  0  0
  111.5139   65.8783   38.1309 C   0  0  0  0  0  0  0  0  0  0  0  0
  110.7677   65.9442   37.0182 C   0  0  0  0  0  0  0  0  0  0  0  0
  111.3149   65.7133   35.6666 C   0  0  0  0  0  0  0  0  0  0  0  0
  108.3542   67.4000   43.6720 C   0  0  0  0  0  0  0  0  0  0  0  0
  109.9350   67.1009   32.5046 C   0  0  0  0  0  0  0  0  0  0  0  0
  111.0471   66.3343   33.2095 C   0  0  0  0  0  0  0  0  0  0  0  0
  109.5857   67.2942   34.8623 C   0  0  0  0  0  0  0  0  0  0  0  0
  109.4233   68.0905   33.5629 C   0  0  1  0  0  0  0  0  0  0  0  0
  108.1767   67.4107   45.1697 C   0  0  0  0  0  0  0  0  0  0  0  0
  113.3287   73.1894   34.0967 C   0  0  0  0  0  0  0  0  0  0  0  0
  109.3106   67.0000   40.9569 N   0  0  0  0  0  0  0  0  0  0  0  0
  110.7050   66.3900   34.6277 N   0  0  0  0  0  0  0  0  0  0  0  0
  109.5266   66.7366   43.2972 N   0  0  0  0  0  0  0  0  0  0  0  0
  112.2650   64.9421   35.5361 O   0  0  0  0  0  0  0  0  0  0  0  0
  107.5253   67.9276   42.9376 O   0  0  0  0  0  0  0  0  0  0  0  0
  112.1613   73.0468   33.2890 O   0  0  0  0  0  0  0  0  0  0  0  0
  112.6591   65.0720   40.4629 H   0  0  0  0  0  0  0  0  0  0  0  0
  108.7753   70.2705   32.0558 H   0  0  0  0  0  0  0  0  0  0  0  0
  111.6793   68.8235   34.9100 H   0  0  0  0  0  0  0  0  0  0  0  0
  109.9801   72.4517   31.9357 H   0  0  0  0  0  0  0  0  0  0  0  0
  112.8843   71.0047   34.7897 H   0  0  0  0  0  0  0  0  0  0  0  0
  111.7517   65.4664   42.7697 H   0  0  0  0  0  0  0  0  0  0  0  0
  109.2707   67.1466   38.8569 H   0  0  0  0  0  0  0  0  0  0  0  0
  112.5829   65.6475   38.0123 H   0  0  0  0  0  0  0  0  0  0  0  0
  109.6982   66.1813   37.1174 H   0  0  0  0  0  0  0  0  0  0  0  0
  110.3270   67.6369   31.6277 H   0  0  0  0  0  0  0  0  0  0  0  0
  109.1404   66.4383   32.1310 H   0  0  0  0  0  0  0  0  0  0  0  0
  111.0793   65.2917   32.8603 H   0  0  0  0  0  0  0  0  0  0  0  0
  112.0386   66.7654   33.0066 H   0  0  0  0  0  0  0  0  0  0  0  0
  109.8066   67.9696   35.7020 H   0  0  0  0  0  0  0  0  0  0  0  0
  108.6675   66.7477   35.1235 H   0  0  0  0  0  0  0  0  0  0  0  0
  108.3806   68.4176   33.4371 H   0  0  0  0  0  0  0  0  0  0  0  0
  109.1615   67.3513   45.6561 H   0  0  0  0  0  0  0  0  0  0  0  0
  107.6736   68.3408   45.4727 H   0  0  0  0  0  0  0  0  0  0  0  0
  107.5655   66.5478   45.4727 H   0  0  0  0  0  0  0  0  0  0  0  0
  113.0459   73.1549   35.1592 H   0  0  0  0  0  0  0  0  0  0  0  0
  114.0290   72.3701   33.8768 H   0  0  0  0  0  0  0  0  0  0  0  0
  113.8112   74.1532   33.8768 H   0  0  0  0  0  0  0  0  0  0  0  0
  110.0971   66.3580   44.0666 H   0  0  0  0  0  0  0  0  0  0  0  0
  1  6  2  0
  1  8  1  0
  2  4  2  0
  2  9  1  0
  3  5  1  0
  3  9  2  0
  4 10  1  0
  5 10  2  0
  6 11  1  0
  7  8  2  0
  7 22  1  0
  8 12  1  0
  9 19  1  0
 10 27  1  0
 11 22  2  0
 11 24  1  0
 12 13  2  0
 13 14  1  0
 14 23  1  0
 14 25  2  0
 15 20  1  0
 15 24  1  0
 15 26  2  0
 16 17  1  0
 16 19  1  0
 17 23  1  0
 18 19  1  0
 18 23  1  0
 21 27  1  0
  1 28  1  0
  2 29  1  0
  3 30  1  0
  4 31  1  0
  5 32  1  0
  6 33  1  0
  7 34  1  0
 12 35  1  0
 13 36  1  0
 16 37  1  0
 16 38  1  0
 17 39  1  0
 17 40  1  0
 18 41  1  0
 18 42  1  0
 19 43  1  6
 20 44  1  0
 20 45  1  0
 20 46  1  0
 21 47  1  0
 21 48  1  0
 21 49  1  0
 24 50  1  0
M  END
>  <Name>  (69) 
CHEMBL4217852

>  <Comment>  (69) 
 Schrodinger Suite 2021-4.

>  <s_m_entry_id>  (69) 
1459

>  <s_m_Source_Path>  (69) 
C:\Users\vinicius\Desktop

>  <s_m_Source_File>  (69) 
Ligands_Saureus_failomega.smi

>  <i_m_Source_File_Index>  (69) 
18

>  <r_lp_tautomer_probability>  (69) 
1

>  <r_epik_Ionization_Penalty>  (69) 
0.0001

>  <r_epik_State_Penalty>  (69) 
0

>  <i_epik_Tot_Q>  (69) 
0

>  <i_f3d_flags>  (69) 
0

>  <s_m_job_name>  (69) 
Saureus_fail

>  <class_value>  (69) 
0

>  <FRED Chemgauss4 score>  (69) 
-11.314281

>  <Set>  (69) 
training

>  <HBA count>  (69) 
4

>  <HBD count>  (69) 
1

>  <ExactMolWt>  (69) 
365.17394159600065

>  <NumRotatableBounds>  (69) 
7

>  <FractionCsp3>  (69) 
0.2857142857142857

>  <TPSA>  (69) 
71.53

>  <LogP_WildmanCrippen>  (69) 
3.0779000000000014

>  <General_Cluster>  (69) 
1

>  <Biological_Cluster>  (69) 
2

>  <Physicochemical_Cluster>  (69) 
1

>  <Structural_Cluster>  (69) 
2

$$$$
CHEMBL3676403
     RDKit          3D

 48 51  0  0  1  0  0  0  0  0999 V2000
  110.8402   73.2433   33.4641 C   0  0  0  0  0  0  0  0  0  0  0  0
  110.0661   72.3140   34.1589 C   0  0  0  0  0  0  0  0  0  0  0  0
  111.7557   72.8103   32.5048 C   0  0  0  0  0  0  0  0  0  0  0  0
  110.2076   70.9517   33.8946 C   0  0  0  0  0  0  0  0  0  0  0  0
  111.8972   71.4481   32.2405 C   0  0  0  0  0  0  0  0  0  0  0  0
  110.1342   66.4730   39.3607 C   0  0  0  0  0  0  0  0  0  0  0  0
  112.4153   66.1085   39.9131 C   0  0  0  0  0  0  0  0  0  0  0  0
  111.4118   66.1015   38.9605 C   0  0  0  0  0  0  0  0  0  0  0  0
  109.8953   66.8178   40.6917 C   0  0  0  0  0  0  0  0  0  0  0  0
  111.1231   70.5187   32.9354 C   0  0  0  0  0  0  0  0  0  0  0  0
  110.9707   66.7882   41.5788 C   0  0  0  0  0  0  0  0  0  0  0  0
  109.5165   67.3787   43.4819 C   0  0  0  0  0  0  0  0  0  0  0  0
  111.6884   65.7322   37.5843 C   0  0  0  0  0  0  0  0  0  0  0  0
  110.9289   66.0531   36.5103 C   0  0  0  0  0  0  0  0  0  0  0  0
  111.2471   65.6453   35.1275 C   0  0  0  0  0  0  0  0  0  0  0  0
  108.5562   67.3155   41.1447 C   0  0  0  0  0  0  0  0  0  0  0  0
  108.3325   67.0005   42.6154 C   0  0  0  0  0  0  0  0  0  0  0  0
  110.1987   67.1536   31.9436 C   0  0  0  0  0  0  0  0  0  0  0  0
  111.0864   66.1914   32.7196 C   0  0  0  0  0  0  0  0  0  0  0  0
  110.1166   67.7648   34.2621 C   0  0  0  0  0  0  0  0  0  0  0  0
  110.1109   68.3675   32.8622 C   0  0  1  0  0  0  0  0  0  0  0  0
  112.2281   66.4495   41.2077 N   0  0  0  0  0  0  0  0  0  0  0  0
  110.7587   67.1559   42.9214 N   0  0  0  0  0  0  0  0  0  0  0  0
  110.8317   66.4950   34.1200 N   0  0  0  0  0  0  0  0  0  0  0  0
  109.3630   67.7668   44.6399 O   0  0  0  0  0  0  0  0  0  0  0  0
  111.8506   64.5883   34.9459 O   0  0  0  0  0  0  0  0  0  0  0  0
  111.2636   69.1807   32.6765 O   0  0  0  0  0  0  0  0  0  0  0  0
  110.7287   74.3176   33.6726 H   0  0  0  0  0  0  0  0  0  0  0  0
  109.3440   72.6554   34.9153 H   0  0  0  0  0  0  0  0  0  0  0  0
  112.3661   73.5432   31.9568 H   0  0  0  0  0  0  0  0  0  0  0  0
  109.5972   70.2188   34.4426 H   0  0  0  0  0  0  0  0  0  0  0  0
  112.6192   71.1067   31.4841 H   0  0  0  0  0  0  0  0  0  0  0  0
  109.3125   66.4953   38.6297 H   0  0  0  0  0  0  0  0  0  0  0  0
  113.4283   65.8186   39.5973 H   0  0  0  0  0  0  0  0  0  0  0  0
  112.5956   65.1389   37.3973 H   0  0  0  0  0  0  0  0  0  0  0  0
  110.0219   66.6526   36.6778 H   0  0  0  0  0  0  0  0  0  0  0  0
  108.5076   68.4045   40.9977 H   0  0  0  0  0  0  0  0  0  0  0  0
  107.7754   66.8142   40.5539 H   0  0  0  0  0  0  0  0  0  0  0  0
  108.1506   65.9207   42.7202 H   0  0  0  0  0  0  0  0  0  0  0  0
  107.4703   67.5935   42.9544 H   0  0  0  0  0  0  0  0  0  0  0  0
  110.6558   67.4211   30.9795 H   0  0  0  0  0  0  0  0  0  0  0  0
  109.2148   66.7281   31.6970 H   0  0  0  0  0  0  0  0  0  0  0  0
  110.8172   65.1489   32.4943 H   0  0  0  0  0  0  0  0  0  0  0  0
  112.1487   66.3046   32.4575 H   0  0  0  0  0  0  0  0  0  0  0  0
  110.6400   68.4274   34.9671 H   0  0  0  0  0  0  0  0  0  0  0  0
  109.0999   67.6265   34.6587 H   0  0  0  0  0  0  0  0  0  0  0  0
  109.2278   68.9958   32.6742 H   0  0  0  0  0  0  0  0  0  0  0  0
  111.5854   67.2660   43.5258 H   0  0  0  0  0  0  0  0  0  0  0  0
  1  2  2  0
  1  3  1  0
  2  4  1  0
  3  5  2  0
  4 10  2  0
  5 10  1  0
  6  8  2  0
  6  9  1  0
  7  8  1  0
  7 22  2  0
  8 13  1  0
  9 11  2  0
  9 16  1  0
 10 27  1  0
 11 22  1  0
 11 23  1  0
 12 17  1  0
 12 23  1  0
 12 25  2  0
 13 14  2  0
 14 15  1  0
 15 24  1  0
 15 26  2  0
 16 17  1  0
 18 19  1  0
 18 21  1  0
 19 24  1  0
 20 21  1  0
 20 24  1  0
 21 27  1  0
  1 28  1  0
  2 29  1  0
  3 30  1  0
  4 31  1  0
  5 32  1  0
  6 33  1  0
  7 34  1  0
 13 35  1  0
 14 36  1  0
 16 37  1  0
 16 38  1  0
 17 39  1  0
 17 40  1  0
 18 41  1  0
 18 42  1  0
 19 43  1  0
 19 44  1  0
 20 45  1  0
 20 46  1  0
 21 47  1  6
 23 48  1  0
M  END
>  <Name>  (70) 
CHEMBL3676403

>  <Comment>  (70) 
 Schrodinger Suite 2021-4.

>  <s_m_entry_id>  (70) 
1428

>  <s_m_Source_Path>  (70) 
C:\Users\vinicius\Desktop

>  <s_m_Source_File>  (70) 
Ligands_Saureus_failomega.smi

>  <i_m_Source_File_Index>  (70) 
3

>  <r_lp_tautomer_probability>  (70) 
1

>  <r_epik_Ionization_Penalty>  (70) 
0.0002

>  <r_epik_State_Penalty>  (70) 
0

>  <i_epik_Tot_Q>  (70) 
0

>  <i_f3d_flags>  (70) 
0

>  <s_m_job_name>  (70) 
Saureus_fail

>  <class_value>  (70) 
1

>  <FRED Chemgauss4 score>  (70) 
-15.451550

>  <Set>  (70) 
training

>  <HBA count>  (70) 
4

>  <HBD count>  (70) 
1

>  <ExactMolWt>  (70) 
363.1582915320006

>  <NumRotatableBounds>  (70) 
4

>  <FractionCsp3>  (70) 
0.2857142857142857

>  <TPSA>  (70) 
71.53

>  <LogP_WildmanCrippen>  (70) 
2.6594000000000007

>  <General_Cluster>  (70) 
1

>  <Biological_Cluster>  (70) 
1

>  <Physicochemical_Cluster>  (70) 
4

>  <Structural_Cluster>  (70) 
2

$$$$
CHEMBL72770
     RDKit          3D

 51 55  0  0  0  0  0  0  0  0999 V2000
  111.7147   64.8287   33.4522 C   0  0  0  0  0  0  0  0  0  0  0  0
  111.0701   65.9992   33.0580 C   0  0  0  0  0  0  0  0  0  0  0  0
  111.8169   64.4883   34.8058 C   0  0  0  0  0  0  0  0  0  0  0  0
  109.8559   67.5790   42.2856 C   0  0  0  0  0  0  0  0  0  0  0  0
  107.7471   66.4459   41.9596 C   0  0  0  0  0  0  0  0  0  0  0  0
  111.3176   70.1006   36.4535 C   0  0  0  0  0  0  0  0  0  0  0  0
  109.8991   69.9216   34.5059 C   0  0  0  0  0  0  0  0  0  0  0  0
  110.5080   66.8649   34.0004 C   0  0  0  0  0  0  0  0  0  0  0  0
  109.1996   68.6047   42.9659 C   0  0  0  0  0  0  0  0  0  0  0  0
  107.0908   67.4716   42.6399 C   0  0  0  0  0  0  0  0  0  0  0  0
  112.0541   71.1045   35.8248 C   0  0  0  0  0  0  0  0  0  0  0  0
  110.6356   70.9256   33.8772 C   0  0  0  0  0  0  0  0  0  0  0  0
  111.2590   65.3452   35.7757 C   0  0  0  0  0  0  0  0  0  0  0  0
  109.1297   66.4996   41.7824 C   0  0  0  0  0  0  0  0  0  0  0  0
  111.1748   65.3220   37.1944 C   0  0  0  0  0  0  0  0  0  0  0  0
  110.2401   69.5090   35.7940 C   0  0  0  0  0  0  0  0  0  0  0  0
  110.6164   66.5135   35.3509 C   0  0  0  0  0  0  0  0  0  0  0  0
  107.8171   68.5511   43.1430 C   0  0  0  0  0  0  0  0  0  0  0  0
  111.7131   71.5171   34.5367 C   0  0  0  0  0  0  0  0  0  0  0  0
  110.4919   66.4523   37.5908 C   0  0  0  0  0  0  0  0  0  0  0  0
  109.8215   65.4178   41.0653 C   0  0  0  0  0  0  0  0  0  0  0  0
  111.6667   64.3284   38.1867 C   0  0  0  0  0  0  0  0  0  0  0  0
  110.1720   66.8532   38.9856 C   0  0  0  0  0  0  0  0  0  0  0  0
  111.7568   64.9802   39.5772 C   0  0  0  0  0  0  0  0  0  0  0  0
  109.4447   68.4264   36.4719 C   0  0  0  0  0  0  0  0  0  0  0  0
  110.1611   67.1682   36.4761 N   0  0  0  0  0  0  0  0  0  0  0  0
  110.5330   65.7433   39.9043 N   0  0  0  0  0  0  0  0  0  0  0  0
  109.7256   64.2921   41.5523 O   0  0  0  0  0  0  0  0  0  0  0  0
  107.1764   69.5519   43.8066 O   0  0  0  0  0  0  0  0  0  0  0  0
  112.4186   72.4831   33.9339 F   0  0  0  0  0  0  0  0  0  0  0  0
  112.1485   64.1642   32.6905 H   0  0  0  0  0  0  0  0  0  0  0  0
  111.0025   66.2460   31.9882 H   0  0  0  0  0  0  0  0  0  0  0  0
  112.3270   63.5622   35.1094 H   0  0  0  0  0  0  0  0  0  0  0  0
  110.9462   67.6213   42.1459 H   0  0  0  0  0  0  0  0  0  0  0  0
  107.1744   65.5947   41.5628 H   0  0  0  0  0  0  0  0  0  0  0  0
  111.5864   69.7754   37.4694 H   0  0  0  0  0  0  0  0  0  0  0  0
  109.0494   69.4552   33.9859 H   0  0  0  0  0  0  0  0  0  0  0  0
  109.9985   67.7896   33.6917 H   0  0  0  0  0  0  0  0  0  0  0  0
  109.7723   69.4559   43.3627 H   0  0  0  0  0  0  0  0  0  0  0  0
  106.0005   67.4292   42.7797 H   0  0  0  0  0  0  0  0  0  0  0  0
  112.9039   71.5709   36.3448 H   0  0  0  0  0  0  0  0  0  0  0  0
  110.3667   71.2509   32.8614 H   0  0  0  0  0  0  0  0  0  0  0  0
  110.9709   63.4774   38.2269 H   0  0  0  0  0  0  0  0  0  0  0  0
  112.6647   63.9777   37.8850 H   0  0  0  0  0  0  0  0  0  0  0  0
  110.7462   67.7530   39.2513 H   0  0  0  0  0  0  0  0  0  0  0  0
  109.0973   67.0713   39.0717 H   0  0  0  0  0  0  0  0  0  0  0  0
  111.8979   64.1923   40.3317 H   0  0  0  0  0  0  0  0  0  0  0  0
  112.6060   65.6794   39.5736 H   0  0  0  0  0  0  0  0  0  0  0  0
  109.2436   68.7272   37.5107 H   0  0  0  0  0  0  0  0  0  0  0  0
  108.5052   68.2879   35.9167 H   0  0  0  0  0  0  0  0  0  0  0  0
  106.1951   69.5136   43.9322 H   0  0  0  0  0  0  0  0  0  0  0  0
  1  2  2  0
  1  3  1  0
  2  8  1  0
  3 13  2  0
  4  9  2  0
  4 14  1  0
  5 10  1  0
  5 14  2  0
  6 11  2  0
  6 16  1  0
  7 12  1  0
  7 16  2  0
  8 17  2  0
  9 18  1  0
 10 18  2  0
 11 19  1  0
 12 19  2  0
 13 15  1  0
 13 17  1  0
 14 21  1  0
 15 20  2  0
 15 22  1  0
 16 25  1  0
 17 26  1  0
 18 29  1  0
 19 30  1  0
 20 23  1  0
 20 26  1  0
 21 27  1  0
 21 28  2  0
 22 24  1  0
 23 27  1  0
 24 27  1  0
 25 26  1  0
  1 31  1  0
  2 32  1  0
  3 33  1  0
  4 34  1  0
  5 35  1  0
  6 36  1  0
  7 37  1  0
  8 38  1  0
  9 39  1  0
 10 40  1  0
 11 41  1  0
 12 42  1  0
 22 43  1  0
 22 44  1  0
 23 45  1  0
 23 46  1  0
 24 47  1  0
 24 48  1  0
 25 49  1  0
 25 50  1  0
 29 51  1  0
M  END
>  <Name>  (71) 
CHEMBL72770

>  <Comment>  (71) 
 Schrodinger Suite 2021-4.

>  <s_m_entry_id>  (71) 
1145

>  <class_value>  (71) 
1

>  <s_m_Source_Path>  (71) 
C:\Users\vinicius\Desktop

>  <s_m_Source_File>  (71) 
Ligands_Saureus_o.sdf

>  <i_m_Source_File_Index>  (71) 
57

>  <r_lp_tautomer_probability>  (71) 
0.999999999997365

>  <r_epik_Ionization_Penalty>  (71) 
0.0145

>  <r_epik_State_Penalty>  (71) 
0.0114

>  <i_epik_Tot_Q>  (71) 
0

>  <i_f3d_flags>  (71) 
0

>  <s_m_job_name>  (71) 
Saureus_o

>  <FRED Chemgauss4 score>  (71) 
-12.561512

>  <Set>  (71) 
training

>  <HBA count>  (71) 
3

>  <HBD count>  (71) 
1

>  <ExactMolWt>  (71) 
400.1587061320006

>  <NumRotatableBounds>  (71) 
4

>  <FractionCsp3>  (71) 
0.16

>  <TPSA>  (71) 
45.47

>  <LogP_WildmanCrippen>  (71) 
4.732800000000004

>  <General_Cluster>  (71) 
3

>  <Biological_Cluster>  (71) 
1

>  <Physicochemical_Cluster>  (71) 
1

>  <Structural_Cluster>  (71) 
4

$$$$
CHEMBL4218400
     RDKit          3D

 49 52  0  0  1  0  0  0  0  0999 V2000
  111.4595   70.0918   36.7332 C   0  0  0  0  0  0  0  0  0  0  0  0
  111.4320   66.8247   41.6367 C   0  0  0  0  0  0  0  0  0  0  0  0
  110.1887   64.9213   40.8191 C   0  0  0  0  0  0  0  0  0  0  0  0
  110.4630   67.0364   42.6174 C   0  0  0  0  0  0  0  0  0  0  0  0
  109.2197   65.1330   41.7998 C   0  0  0  0  0  0  0  0  0  0  0  0
  111.7928   71.3765   36.2974 C   0  0  0  0  0  0  0  0  0  0  0  0
  110.7596   69.4649   34.4871 C   0  0  0  0  0  0  0  0  0  0  0  0
  110.9460   69.1415   35.8332 C   0  0  0  0  0  0  0  0  0  0  0  0
  111.2949   65.7671   40.7375 C   0  0  0  0  0  0  0  0  0  0  0  0
  109.3569   66.1906   42.6990 C   0  0  0  0  0  0  0  0  0  0  0  0
  111.5992   71.6704   34.9633 C   0  0  0  0  0  0  0  0  0  0  0  0
  111.0966   70.7402   34.0823 C   0  0  0  0  0  0  0  0  0  0  0  0
  111.7583   64.9173   38.4375 C   0  0  0  0  0  0  0  0  0  0  0  0
  107.2194   65.6647   43.9151 C   0  0  0  0  0  0  0  0  0  0  0  0
  110.7601   66.6013   35.3261 C   0  0  0  0  0  0  0  0  0  0  0  0
  110.7618   65.3630   36.2083 C   0  0  0  0  0  0  0  0  0  0  0  0
  111.4342   67.2621   37.5155 C   0  0  0  0  0  0  0  0  0  0  0  0
  111.4737   72.5770   33.0026 C   0  0  0  0  0  0  0  0  0  0  0  0
  110.5912   67.7565   36.3290 C   0  0  1  0  0  0  0  0  0  0  0  0
  106.4327   66.2187   45.0764 C   0  0  0  0  0  0  0  0  0  0  0  0
  112.3368   65.5395   39.6830 C   0  0  0  0  0  0  0  0  0  0  0  0
  111.3462   65.8068   37.4615 N   0  0  0  0  0  0  0  0  0  0  0  0
  108.3876   66.4020   43.6799 N   0  0  0  0  0  0  0  0  0  0  0  0
  111.6695   63.6925   38.3357 O   0  0  0  0  0  0  0  0  0  0  0  0
  106.8222   64.6805   43.2998 O   0  0  0  0  0  0  0  0  0  0  0  0
  111.8657   72.8613   34.3612 O   0  0  0  0  0  0  0  0  0  0  0  0
  110.9852   71.2324   32.8185 O   0  0  0  0  0  0  0  0  0  0  0  0
  111.6001   69.8212   37.7901 H   0  0  0  0  0  0  0  0  0  0  0  0
  112.3043   67.4917   41.5724 H   0  0  0  0  0  0  0  0  0  0  0  0
  110.0805   64.0873   40.1100 H   0  0  0  0  0  0  0  0  0  0  0  0
  110.5711   67.8704   43.3265 H   0  0  0  0  0  0  0  0  0  0  0  0
  108.3474   64.4660   41.8641 H   0  0  0  0  0  0  0  0  0  0  0  0
  112.1954   72.1273   36.9933 H   0  0  0  0  0  0  0  0  0  0  0  0
  110.3583   68.7288   33.7749 H   0  0  0  0  0  0  0  0  0  0  0  0
  111.7082   66.6935   34.7761 H   0  0  0  0  0  0  0  0  0  0  0  0
  109.9713   66.5804   34.5598 H   0  0  0  0  0  0  0  0  0  0  0  0
  109.7365   64.9972   36.3660 H   0  0  0  0  0  0  0  0  0  0  0  0
  111.3228   64.5308   35.7580 H   0  0  0  0  0  0  0  0  0  0  0  0
  112.4789   67.5903   37.4108 H   0  0  0  0  0  0  0  0  0  0  0  0
  111.0726   67.6624   38.4742 H   0  0  0  0  0  0  0  0  0  0  0  0
  110.6781   73.2799   32.7146 H   0  0  0  0  0  0  0  0  0  0  0  0
  112.3708   72.6861   32.3754 H   0  0  0  0  0  0  0  0  0  0  0  0
  109.5351   67.9422   36.5744 H   0  0  0  0  0  0  0  0  0  0  0  0
  106.8944   65.8936   46.0204 H   0  0  0  0  0  0  0  0  0  0  0  0
  106.4321   67.3176   45.0279 H   0  0  0  0  0  0  0  0  0  0  0  0
  105.3978   65.8490   45.0279 H   0  0  0  0  0  0  0  0  0  0  0  0
  112.7905   66.5060   39.4185 H   0  0  0  0  0  0  0  0  0  0  0  0
  113.0855   64.8450   40.0916 H   0  0  0  0  0  0  0  0  0  0  0  0
  108.5512   67.2000   44.3102 H   0  0  0  0  0  0  0  0  0  0  0  0
  1  6  2  0
  1  8  1  0
  2  4  2  0
  2  9  1  0
  3  5  1  0
  3  9  2  0
  4 10  1  0
  5 10  2  0
  6 11  1  0
  7  8  2  0
  7 12  1  0
  8 19  1  0
  9 21  1  0
 10 23  1  0
 11 12  2  0
 11 26  1  0
 12 27  1  0
 13 21  1  0
 13 22  1  0
 13 24  2  0
 14 20  1  0
 14 23  1  0
 14 25  2  0
 15 16  1  0
 15 19  1  0
 16 22  1  0
 17 19  1  0
 17 22  1  0
 18 26  1  0
 18 27  1  0
  1 28  1  0
  2 29  1  0
  3 30  1  0
  4 31  1  0
  5 32  1  0
  6 33  1  0
  7 34  1  0
 15 35  1  0
 15 36  1  0
 16 37  1  0
 16 38  1  0
 17 39  1  0
 17 40  1  0
 18 41  1  0
 18 42  1  0
 19 43  1  1
 20 44  1  0
 20 45  1  0
 20 46  1  0
 21 47  1  0
 21 48  1  0
 23 49  1  0
M  END
>  <Name>  (72) 
CHEMBL4218400

>  <Comment>  (72) 
 Schrodinger Suite 2021-4.

>  <s_m_entry_id>  (72) 
1507

>  <s_m_Source_Path>  (72) 
C:\Users\vinicius\Desktop

>  <s_m_Source_File>  (72) 
Ligands_Saureus_failomega.smi

>  <i_m_Source_File_Index>  (72) 
39

>  <r_lp_tautomer_probability>  (72) 
1

>  <r_epik_Ionization_Penalty>  (72) 
0

>  <r_epik_State_Penalty>  (72) 
0

>  <i_epik_Tot_Q>  (72) 
0

>  <i_f3d_flags>  (72) 
0

>  <s_m_job_name>  (72) 
Saureus_fail

>  <class_value>  (72) 
0

>  <FRED Chemgauss4 score>  (72) 
-12.402160

>  <Set>  (72) 
training

>  <HBA count>  (72) 
4

>  <HBD count>  (72) 
1

>  <ExactMolWt>  (72) 
366.15795718400057

>  <NumRotatableBounds>  (72) 
5

>  <FractionCsp3>  (72) 
0.3333333333333333

>  <TPSA>  (72) 
67.87

>  <LogP_WildmanCrippen>  (72) 
2.9323000000000006

>  <General_Cluster>  (72) 
3

>  <Biological_Cluster>  (72) 
2

>  <Physicochemical_Cluster>  (72) 
1

>  <Structural_Cluster>  (72) 
4

$$$$
CHEMBL2178284
     RDKit          3D

 33 34  0  0  0  0  0  0  0  0999 V2000
  110.3849   70.1786   34.0129 C   0  0  0  0  0  0  0  0  0  0  0  0
  109.9569   69.0727   34.7474 C   0  0  0  0  0  0  0  0  0  0  0  0
  110.8281   68.7480   32.1171 C   0  0  0  0  0  0  0  0  0  0  0  0
  111.9879   65.2992   37.2651 C   0  0  0  0  0  0  0  0  0  0  0  0
  109.7796   67.0037   37.2382 C   0  0  0  0  0  0  0  0  0  0  0  0
  110.8205   70.0163   32.6977 C   0  0  0  0  0  0  0  0  0  0  0  0
  111.5389   65.8776   38.4523 C   0  0  0  0  0  0  0  0  0  0  0  0
  111.3328   65.5731   36.0644 C   0  0  0  0  0  0  0  0  0  0  0  0
  109.9646   67.8044   34.1667 C   0  0  0  0  0  0  0  0  0  0  0  0
  110.2286   66.4253   36.0510 C   0  0  0  0  0  0  0  0  0  0  0  0
  110.4002   67.6421   32.8516 C   0  0  0  0  0  0  0  0  0  0  0  0
  110.4347   66.7299   38.4389 C   0  0  0  0  0  0  0  0  0  0  0  0
  111.2672   71.1691   31.9318 C   0  0  0  0  0  0  0  0  0  0  0  0
  111.8876   64.2084   40.2904 C   0  0  0  0  0  0  0  0  0  0  0  0
  112.2409   65.5859   39.7356 C   0  0  0  0  0  0  0  0  0  0  0  0
  111.2403   72.4121   32.5575 N   0  0  0  0  0  0  0  0  0  0  0  0
  111.7588   65.0318   34.9821 O   0  0  0  0  0  1  0  0  0  0  0  0
  111.6451   71.0569   30.7525 O   0  0  0  0  0  0  0  0  0  0  0  0
  109.5469   66.7255   34.8837 O   0  0  0  0  0  0  0  0  0  0  0  0
  110.4097   66.4264   32.2875 F   0  0  0  0  0  0  0  0  0  0  0  0
  109.9967   67.2912   39.5745 F   0  0  0  0  0  0  0  0  0  0  0  0
  110.3789   71.1787   34.4708 H   0  0  0  0  0  0  0  0  0  0  0  0
  109.6133   69.2007   35.7845 H   0  0  0  0  0  0  0  0  0  0  0  0
  111.1716   68.6200   31.0800 H   0  0  0  0  0  0  0  0  0  0  0  0
  112.8586   64.6271   37.2757 H   0  0  0  0  0  0  0  0  0  0  0  0
  108.9089   67.6758   37.2276 H   0  0  0  0  0  0  0  0  0  0  0  0
  111.8964   64.2426   41.3898 H   0  0  0  0  0  0  0  0  0  0  0  0
  110.8859   63.9181   39.9406 H   0  0  0  0  0  0  0  0  0  0  0  0
  112.6259   63.4718   39.9406 H   0  0  0  0  0  0  0  0  0  0  0  0
  113.3263   65.6296   39.5627 H   0  0  0  0  0  0  0  0  0  0  0  0
  111.9203   66.3372   40.4723 H   0  0  0  0  0  0  0  0  0  0  0  0
  111.5489   73.2521   32.0476 H   0  0  0  0  0  0  0  0  0  0  0  0
  110.9118   72.4919   33.5304 H   0  0  0  0  0  0  0  0  0  0  0  0
  1  2  2  0
  1  6  1  0
  2  9  1  0
  3  6  2  0
  3 11  1  0
  4  7  2  0
  4  8  1  0
  5 10  1  0
  5 12  2  0
  6 13  1  0
  7 12  1  0
  7 15  1  0
  8 10  2  0
  8 17  1  0
  9 11  2  0
  9 19  1  0
 10 19  1  0
 11 20  1  0
 12 21  1  0
 13 16  1  0
 13 18  2  0
 14 15  1  0
  1 22  1  0
  2 23  1  0
  3 24  1  0
  4 25  1  0
  5 26  1  0
 14 27  1  0
 14 28  1  0
 14 29  1  0
 15 30  1  0
 15 31  1  0
 16 32  1  0
 16 33  1  0
M  CHG  1  17  -1
M  END
>  <Name>  (73) 
CHEMBL2178284

>  <Comment>  (73) 
 Schrodinger Suite 2021-4.

>  <s_m_entry_id>  (73) 
1077

>  <class_value>  (73) 
1

>  <s_m_Source_Path>  (73) 
C:\Users\vinicius\Desktop

>  <s_m_Source_File>  (73) 
Ligands_Saureus_o.sdf

>  <i_m_Source_File_Index>  (73) 
4

>  <r_lp_tautomer_probability>  (73) 
1

>  <r_epik_Ionization_Penalty>  (73) 
1.6592

>  <r_epik_State_Penalty>  (73) 
1.7619

>  <i_epik_Tot_Q>  (73) 
-1

>  <i_f3d_flags>  (73) 
0

>  <s_m_job_name>  (73) 
Saureus_o

>  <FRED Chemgauss4 score>  (73) 
-14.041788

>  <Set>  (73) 
training

>  <HBA count>  (73) 
3

>  <HBD count>  (73) 
1

>  <ExactMolWt>  (73) 
292.07907326391035

>  <NumRotatableBounds>  (73) 
5

>  <FractionCsp3>  (73) 
0.13333333333333333

>  <TPSA>  (73) 
75.38000000000001

>  <LogP_WildmanCrippen>  (73) 
2.491999999999999

>  <General_Cluster>  (73) 
4

>  <Biological_Cluster>  (73) 
1

>  <Physicochemical_Cluster>  (73) 
3

>  <Structural_Cluster>  (73) 
1

$$$$
FULL_M2
     RDKit          3D

 61 64  0  0  1  0  0  0  0  0999 V2000
  109.6047   68.8434   31.5552 C   0  0  0  0  0  0  0  0  0  0  0  0
  109.6466   69.8978   32.4653 C   0  0  0  0  0  0  0  0  0  0  0  0
  109.9901   67.5528   31.9358 C   0  0  0  0  0  0  0  0  0  0  0  0
  109.3129   67.4494   40.0371 C   0  0  0  0  0  0  0  0  0  0  0  0
  108.3820   67.4515   41.0726 C   0  0  0  0  0  0  0  0  0  0  0  0
  110.0735   69.6975   33.7812 C   0  0  0  0  0  0  0  0  0  0  0  0
  110.8758   66.1810   33.9700 C   0  0  0  0  0  0  0  0  0  0  0  0
  110.0721   65.2816   40.7565 C   0  0  0  0  0  0  0  0  0  0  0  0
  110.4241   67.3268   33.2572 C   0  0  0  0  0  0  0  0  0  0  0  0
  110.1578   66.3610   39.8765 C   0  0  0  0  0  0  0  0  0  0  0  0
  108.2787   66.3638   41.9619 C   0  0  0  0  0  0  0  0  0  0  0  0
  110.4557   68.4022   34.1476 C   0  0  0  0  0  0  0  0  0  0  0  0
  109.1444   65.2582   41.8182 C   0  0  0  0  0  0  0  0  0  0  0  0
  111.1677   66.5757   35.2553 C   0  0  0  0  0  0  0  0  0  0  0  0
  106.8877   64.0110   43.5393 C   0  0  0  0  0  0  0  0  0  0  0  0
  111.1322   66.3464   38.7972 C   0  0  0  0  0  0  0  0  0  0  0  0
  108.4114   62.6620   46.0029 C   0  0  0  0  0  0  0  0  0  0  0  0
  107.2409   66.4461   43.0552 C   0  0  0  0  0  0  0  0  0  0  0  0
  108.3778   63.9930   43.8714 C   0  0  1  0  0  0  0  0  0  0  0  0
  111.0911   68.7115   36.5507 C   0  0  0  0  0  0  0  0  0  0  0  0
  105.0133   65.3928   42.6945 C   0  0  0  0  0  0  0  0  0  0  0  0
  109.4384   65.2471   37.3126 C   0  0  0  0  0  0  0  0  0  0  0  0
  108.5128   61.2861   47.9252 C   0  0  0  0  0  0  0  0  0  0  0  0
  111.6787   65.7708   36.4151 C   0  0  0  0  0  0  0  0  0  0  0  0
  108.7730   62.6751   44.5405 C   0  0  0  0  0  0  0  0  0  0  0  0
  110.9109   67.9169   35.3528 N   0  0  0  0  0  0  0  0  0  0  0  0
  109.1422   64.1414   42.6433 N   0  0  0  0  0  0  0  0  0  0  0  0
  106.3999   65.2503   43.1164 N   0  0  0  0  0  0  0  0  0  0  0  0
  110.7613   65.8065   37.5520 N   0  0  0  0  0  0  0  0  0  0  0  0
  106.1958   62.9958   43.6329 O   0  0  0  0  0  0  0  0  0  0  0  0
  112.2459   66.8305   39.0393 O   0  0  0  0  0  0  0  0  0  0  0  0
  107.8718   63.5759   46.6114 O   0  0  0  0  0  0  0  0  0  0  0  0
  108.7882   61.4599   46.5314 O   0  0  0  0  0  0  0  0  0  0  0  0
  109.2647   69.0276   30.5254 H   0  0  0  0  0  0  0  0  0  0  0  0
  109.3389   70.9036   32.1431 H   0  0  0  0  0  0  0  0  0  0  0  0
  109.9546   66.7251   31.2122 H   0  0  0  0  0  0  0  0  0  0  0  0
  109.3780   68.3061   39.3502 H   0  0  0  0  0  0  0  0  0  0  0  0
  107.7156   68.3176   41.1984 H   0  0  0  0  0  0  0  0  0  0  0  0
  110.1077   70.5276   34.5022 H   0  0  0  0  0  0  0  0  0  0  0  0
  110.9740   65.1626   33.5660 H   0  0  0  0  0  0  0  0  0  0  0  0
  110.7475   64.4245   40.6181 H   0  0  0  0  0  0  0  0  0  0  0  0
  107.7537   66.5672   44.0208 H   0  0  0  0  0  0  0  0  0  0  0  0
  106.5888   67.3041   42.8350 H   0  0  0  0  0  0  0  0  0  0  0  0
  108.5905   64.8211   44.5635 H   0  0  0  0  0  0  0  0  0  0  0  0
  110.9471   68.0763   37.4371 H   0  0  0  0  0  0  0  0  0  0  0  0
  112.1074   69.1321   36.5623 H   0  0  0  0  0  0  0  0  0  0  0  0
  110.3556   69.5294   36.5623 H   0  0  0  0  0  0  0  0  0  0  0  0
  104.3653   65.4594   43.5809 H   0  0  0  0  0  0  0  0  0  0  0  0
  104.9054   66.3068   42.0920 H   0  0  0  0  0  0  0  0  0  0  0  0
  104.7218   64.5199   42.0920 H   0  0  0  0  0  0  0  0  0  0  0  0
  108.9482   65.0398   38.2753 H   0  0  0  0  0  0  0  0  0  0  0  0
  108.8340   65.9667   36.7408 H   0  0  0  0  0  0  0  0  0  0  0  0
  109.5336   64.3122   36.7408 H   0  0  0  0  0  0  0  0  0  0  0  0
  109.2963   61.7806   48.5182 H   0  0  0  0  0  0  0  0  0  0  0  0
  107.5359   61.7316   48.1643 H   0  0  0  0  0  0  0  0  0  0  0  0
  108.4946   60.2125   48.1643 H   0  0  0  0  0  0  0  0  0  0  0  0
  111.8061   64.7264   36.0941 H   0  0  0  0  0  0  0  0  0  0  0  0
  112.6358   66.2075   36.7366 H   0  0  0  0  0  0  0  0  0  0  0  0
  109.8597   62.5365   44.4408 H   0  0  0  0  0  0  0  0  0  0  0  0
  108.2245   61.8608   44.0444 H   0  0  0  0  0  0  0  0  0  0  0  0
  109.7345   63.3477   42.3604 H   0  0  0  0  0  0  0  0  0  0  0  0
  1  2  2  0
  1  3  1  0
  2  6  1  0
  3  9  2  0
  4  5  2  0
  4 10  1  0
  5 11  1  0
  6 12  2  0
  7  9  1  0
  7 14  2  0
  8 10  2  0
  8 13  1  0
  9 12  1  0
 10 16  1  0
 11 13  2  0
 11 18  1  0
 12 26  1  0
 13 27  1  0
 14 24  1  0
 14 26  1  0
 15 19  1  0
 15 28  1  0
 15 30  2  0
 16 29  1  0
 16 31  2  0
 17 25  1  0
 17 32  2  0
 17 33  1  0
 18 28  1  0
 19 25  1  0
 19 27  1  0
 20 26  1  0
 21 28  1  0
 22 29  1  0
 23 33  1  0
 24 29  1  0
  1 34  1  0
  2 35  1  0
  3 36  1  0
  4 37  1  0
  5 38  1  0
  6 39  1  0
  7 40  1  0
  8 41  1  0
 18 42  1  0
 18 43  1  0
 19 44  1  1
 20 45  1  0
 20 46  1  0
 20 47  1  0
 21 48  1  0
 21 49  1  0
 21 50  1  0
 22 51  1  0
 22 52  1  0
 22 53  1  0
 23 54  1  0
 23 55  1  0
 23 56  1  0
 24 57  1  0
 24 58  1  0
 25 59  1  0
 25 60  1  0
 27 61  1  0
M  END
>  <Name>  (74) 
FULL_M2

>  <Comment>  (74) 
 Schrodinger Suite 2021-4.

>  <s_m_entry_id>  (74) 
1363

>  <class_value>  (74) 
0

>  <s_m_Source_Path>  (74) 
C:\Users\vinicius\Desktop

>  <s_m_Source_File>  (74) 
Ligands_Saureus_o.sdf

>  <i_m_Source_File_Index>  (74) 
214

>  <r_lp_tautomer_probability>  (74) 
1

>  <r_epik_Ionization_Penalty>  (74) 
0

>  <r_epik_State_Penalty>  (74) 
0

>  <i_epik_Tot_Q>  (74) 
0

>  <i_f3d_flags>  (74) 
0

>  <s_m_job_name>  (74) 
Saureus_o

>  <FRED Chemgauss4 score>  (74) 
-11.676991

>  <Set>  (74) 
training

>  <HBA count>  (74) 
6

>  <HBD count>  (74) 
1

>  <ExactMolWt>  (74) 
448.2110553760008

>  <NumRotatableBounds>  (74) 
9

>  <FractionCsp3>  (74) 
0.32

>  <TPSA>  (74) 
83.88000000000001

>  <LogP_WildmanCrippen>  (74) 
2.7661000000000007

>  <General_Cluster>  (74) 
5

>  <Biological_Cluster>  (74) 
2

>  <Physicochemical_Cluster>  (74) 
4

>  <Structural_Cluster>  (74) 
4

$$$$
CHEMBL73421
     RDKit          3D

 59 63  0  0  0  0  0  0  0  0999 V2000
  108.2002   62.5764   43.5748 C   0  0  0  0  0  0  0  0  0  0  0  0
  107.3046   63.5980   43.8834 C   0  0  0  0  0  0  0  0  0  0  0  0
  109.1812   62.7561   42.5931 C   0  0  0  0  0  0  0  0  0  0  0  0
  107.3647   68.5753   43.5939 C   0  0  0  0  0  0  0  0  0  0  0  0
  109.6469   68.5726   42.8009 C   0  0  0  0  0  0  0  0  0  0  0  0
  107.3597   64.8286   43.2230 C   0  0  0  0  0  0  0  0  0  0  0  0
  107.7450   69.3558   44.6856 C   0  0  0  0  0  0  0  0  0  0  0  0
  110.0272   69.3531   43.8926 C   0  0  0  0  0  0  0  0  0  0  0  0
  111.8049   69.9740   36.9854 C   0  0  0  0  0  0  0  0  0  0  0  0
  109.2581   63.9883   41.9132 C   0  0  0  0  0  0  0  0  0  0  0  0
  111.2853   67.6149   36.9466 C   0  0  0  0  0  0  0  0  0  0  0  0
  110.0964   64.5111   40.8913 C   0  0  0  0  0  0  0  0  0  0  0  0
  108.3157   68.1836   42.6515 C   0  0  0  0  0  0  0  0  0  0  0  0
  112.0137   68.6830   37.4704 C   0  0  0  0  0  0  0  0  0  0  0  0
  110.1394   69.1290   35.4528 C   0  0  0  0  0  0  0  0  0  0  0  0
  108.3449   64.9961   42.2431 C   0  0  0  0  0  0  0  0  0  0  0  0
  109.0762   69.7448   44.8349 C   0  0  0  0  0  0  0  0  0  0  0  0
  110.8677   70.1971   35.9767 C   0  0  0  0  0  0  0  0  0  0  0  0
  110.3481   67.8379   35.9378 C   0  0  0  0  0  0  0  0  0  0  0  0
  109.6779   65.7978   40.6254 C   0  0  0  0  0  0  0  0  0  0  0  0
  111.5026   66.2521   37.4553 C   0  0  0  0  0  0  0  0  0  0  0  0
  111.2318   63.8988   40.1495 C   0  0  0  0  0  0  0  0  0  0  0  0
  110.2652   66.7355   39.6332 C   0  0  0  0  0  0  0  0  0  0  0  0
  112.0953   65.0021   39.5140 C   0  0  0  0  0  0  0  0  0  0  0  0
  113.0241   68.4748   38.5513 C   0  0  0  0  0  0  0  0  0  0  0  0
  109.1352   69.3704   34.3715 C   0  0  0  0  0  0  0  0  0  0  0  0
  107.9056   67.3421   41.4734 C   0  0  0  0  0  0  0  0  0  0  0  0
  108.6248   66.0858   41.4454 N   0  0  0  0  0  0  0  0  0  0  0  0
  111.2684   66.0085   38.8138 N   0  0  0  0  0  0  0  0  0  0  0  0
  111.8862   65.4184   36.6360 O   0  0  0  0  0  0  0  0  0  0  0  0
  109.4467   70.5075   45.8996 O   0  0  0  0  0  0  0  0  0  0  0  0
  110.6772   71.4650   35.5153 O   0  0  0  0  0  0  0  0  0  0  0  0
  109.6336   66.7955   35.4228 O   0  0  0  0  0  0  0  0  0  0  0  0
  108.1354   61.6171   44.1092 H   0  0  0  0  0  0  0  0  0  0  0  0
  106.5421   63.4335   44.6590 H   0  0  0  0  0  0  0  0  0  0  0  0
  109.8845   61.9446   42.3547 H   0  0  0  0  0  0  0  0  0  0  0  0
  106.3149   68.2687   43.4761 H   0  0  0  0  0  0  0  0  0  0  0  0
  110.3968   68.2638   42.0577 H   0  0  0  0  0  0  0  0  0  0  0  0
  106.6538   65.6368   43.4648 H   0  0  0  0  0  0  0  0  0  0  0  0
  106.9951   69.6646   45.4288 H   0  0  0  0  0  0  0  0  0  0  0  0
  111.0770   69.6597   44.0104 H   0  0  0  0  0  0  0  0  0  0  0  0
  112.3794   70.8163   37.3984 H   0  0  0  0  0  0  0  0  0  0  0  0
  111.8468   63.3091   40.8452 H   0  0  0  0  0  0  0  0  0  0  0  0
  110.8375   63.2451   39.3575 H   0  0  0  0  0  0  0  0  0  0  0  0
  109.4707   67.1272   38.9811 H   0  0  0  0  0  0  0  0  0  0  0  0
  110.7498   67.5733   40.1559 H   0  0  0  0  0  0  0  0  0  0  0  0
  112.6726   65.5030   40.3051 H   0  0  0  0  0  0  0  0  0  0  0  0
  112.7626   64.5330   38.7760 H   0  0  0  0  0  0  0  0  0  0  0  0
  112.5372   68.5751   39.5326 H   0  0  0  0  0  0  0  0  0  0  0  0
  113.4582   67.4683   38.4585 H   0  0  0  0  0  0  0  0  0  0  0  0
  113.8207   69.2277   38.4585 H   0  0  0  0  0  0  0  0  0  0  0  0
  108.1598   69.6049   34.8227 H   0  0  0  0  0  0  0  0  0  0  0  0
  109.4635   70.2152   33.7482 H   0  0  0  0  0  0  0  0  0  0  0  0
  109.0436   68.4687   33.7482 H   0  0  0  0  0  0  0  0  0  0  0  0
  106.8271   67.1357   41.5392 H   0  0  0  0  0  0  0  0  0  0  0  0
  108.1416   67.8966   40.5531 H   0  0  0  0  0  0  0  0  0  0  0  0
  110.3914   70.7837   46.0058 H   0  0  0  0  0  0  0  0  0  0  0  0
  110.0151   71.6371   34.7997 H   0  0  0  0  0  0  0  0  0  0  0  0
  108.9691   66.9567   34.7069 H   0  0  0  0  0  0  0  0  0  0  0  0
  1  2  2  0
  1  3  1  0
  2  6  1  0
  3 10  2  0
  4  7  2  0
  4 13  1  0
  5  8  1  0
  5 13  2  0
  6 16  2  0
  7 17  1  0
  8 17  2  0
  9 14  2  0
  9 18  1  0
 10 12  1  0
 10 16  1  0
 11 14  1  0
 11 19  2  0
 11 21  1  0
 12 20  2  0
 12 22  1  0
 13 27  1  0
 14 25  1  0
 15 18  2  0
 15 19  1  0
 15 26  1  0
 16 28  1  0
 17 31  1  0
 18 32  1  0
 19 33  1  0
 20 23  1  0
 20 28  1  0
 21 29  1  0
 21 30  2  0
 22 24  1  0
 23 29  1  0
 24 29  1  0
 27 28  1  0
  1 34  1  0
  2 35  1  0
  3 36  1  0
  4 37  1  0
  5 38  1  0
  6 39  1  0
  7 40  1  0
  8 41  1  0
  9 42  1  0
 22 43  1  0
 22 44  1  0
 23 45  1  0
 23 46  1  0
 24 47  1  0
 24 48  1  0
 25 49  1  0
 25 50  1  0
 25 51  1  0
 26 52  1  0
 26 53  1  0
 26 54  1  0
 27 55  1  0
 27 56  1  0
 31 57  1  0
 32 58  1  0
 33 59  1  0
M  END
>  <Name>  (75) 
CHEMBL73421

>  <Comment>  (75) 
 Schrodinger Suite 2021-4.

>  <s_m_entry_id>  (75) 
1286

>  <class_value>  (75) 
0

>  <s_m_Source_Path>  (75) 
C:\Users\vinicius\Desktop

>  <s_m_Source_File>  (75) 
Ligands_Saureus_o.sdf

>  <i_m_Source_File_Index>  (75) 
169

>  <r_lp_tautomer_probability>  (75) 
0.999999999895365

>  <r_epik_Ionization_Penalty>  (75) 
0.0513

>  <r_epik_State_Penalty>  (75) 
0.041

>  <i_epik_Tot_Q>  (75) 
0

>  <i_f3d_flags>  (75) 
0

>  <s_m_job_name>  (75) 
Saureus_o

>  <FRED Chemgauss4 score>  (75) 
-11.102711

>  <Set>  (75) 
training

>  <HBA count>  (75) 
5

>  <HBD count>  (75) 
3

>  <ExactMolWt>  (75) 
442.1892573120007

>  <NumRotatableBounds>  (75) 
8

>  <FractionCsp3>  (75) 
0.2222222222222222

>  <TPSA>  (75) 
85.93

>  <LogP_WildmanCrippen>  (75) 
4.621740000000007

>  <General_Cluster>  (75) 
5

>  <Biological_Cluster>  (75) 
2

>  <Physicochemical_Cluster>  (75) 
4

>  <Structural_Cluster>  (75) 
4

$$$$
CHEMBL567106
     RDKit          3D

 55 58  0  0  1  0  0  0  0  0999 V2000
  112.5737   72.8326   35.6372 C   0  0  0  0  0  0  0  0  0  0  0  0
  112.1139   73.1072   34.3508 C   0  0  0  0  0  0  0  0  0  0  0  0
  112.2923   71.6073   36.2522 C   0  0  0  0  0  0  0  0  0  0  0  0
  111.3604   72.1692   33.6392 C   0  0  0  0  0  0  0  0  0  0  0  0
  111.0727   69.3351   35.8596 C   0  0  0  0  0  0  0  0  0  0  0  0
  109.9933   65.9030   39.5657 C   0  0  0  0  0  0  0  0  0  0  0  0
  112.2985   65.9227   40.0469 C   0  0  0  0  0  0  0  0  0  0  0  0
  111.5343   70.6461   35.5543 C   0  0  0  0  0  0  0  0  0  0  0  0
  111.3002   65.8172   39.1092 C   0  0  0  0  0  0  0  0  0  0  0  0
  109.6940   66.0884   40.9327 C   0  0  0  0  0  0  0  0  0  0  0  0
  111.0868   70.9486   34.2665 C   0  0  0  0  0  0  0  0  0  0  0  0
  110.3668   68.8758   34.7717 C   0  0  0  0  0  0  0  0  0  0  0  0
  110.7784   66.1442   41.8095 C   0  0  0  0  0  0  0  0  0  0  0  0
  109.6596   66.2151   44.0924 C   0  0  0  0  0  0  0  0  0  0  0  0
  111.5997   65.6341   37.7018 C   0  0  0  0  0  0  0  0  0  0  0  0
  110.7546   65.9049   36.6784 C   0  0  0  0  0  0  0  0  0  0  0  0
  111.1696   65.6420   35.2689 C   0  0  0  0  0  0  0  0  0  0  0  0
  108.2247   66.2083   41.2557 C   0  0  0  0  0  0  0  0  0  0  0  0
  108.3043   65.7868   43.6096 C   0  0  0  0  0  0  0  0  0  0  0  0
  109.7462   69.7580   32.5173 C   0  0  0  0  0  0  0  0  0  0  0  0
  106.4291   66.9433   42.6604 C   0  0  0  0  0  0  0  0  0  0  0  0
  110.9456   66.2660   32.8947 C   0  0  0  0  0  0  0  0  0  0  0  0
  109.6692   67.5627   34.5634 C   0  0  0  0  0  0  0  0  0  0  0  0
  112.0668   66.0862   41.3654 N   0  0  0  0  0  0  0  0  0  0  0  0
  110.3810   69.8559   33.8158 N   0  0  0  0  0  0  0  0  0  0  0  0
  110.7033   66.2849   43.2104 N   0  0  0  0  0  0  0  0  0  0  0  0
  107.8778   66.7275   42.5819 N   0  0  0  0  0  0  0  0  0  0  0  0
  110.6125   66.4783   34.2973 N   0  0  0  0  0  0  0  0  0  0  0  0
  109.8355   66.4358   45.2960 O   0  0  0  0  0  0  0  0  0  0  0  0
  111.9416   64.7145   35.0213 O   0  0  0  0  0  0  0  0  0  0  0  0
  113.1649   73.5879   36.1758 H   0  0  0  0  0  0  0  0  0  0  0  0
  112.3475   74.0774   33.8880 H   0  0  0  0  0  0  0  0  0  0  0  0
  112.6584   71.3972   37.2680 H   0  0  0  0  0  0  0  0  0  0  0  0
  110.9959   72.3827   32.6235 H   0  0  0  0  0  0  0  0  0  0  0  0
  111.2487   68.7873   36.7971 H   0  0  0  0  0  0  0  0  0  0  0  0
  109.1678   65.8245   38.8430 H   0  0  0  0  0  0  0  0  0  0  0  0
  113.3425   65.8711   39.7041 H   0  0  0  0  0  0  0  0  0  0  0  0
  112.5951   65.2431   37.4444 H   0  0  0  0  0  0  0  0  0  0  0  0
  109.7577   66.3205   36.8870 H   0  0  0  0  0  0  0  0  0  0  0  0
  107.7736   66.8776   40.5083 H   0  0  0  0  0  0  0  0  0  0  0  0
  107.8429   65.1768   41.2426 H   0  0  0  0  0  0  0  0  0  0  0  0
  108.3610   64.7725   43.1877 H   0  0  0  0  0  0  0  0  0  0  0  0
  107.5859   65.7772   44.4426 H   0  0  0  0  0  0  0  0  0  0  0  0
  108.6668   69.5915   32.6485 H   0  0  0  0  0  0  0  0  0  0  0  0
  109.9080   70.6917   31.9587 H   0  0  0  0  0  0  0  0  0  0  0  0
  110.1818   68.9164   31.9587 H   0  0  0  0  0  0  0  0  0  0  0  0
  106.1219   66.9891   43.7156 H   0  0  0  0  0  0  0  0  0  0  0  0
  106.1718   67.8897   42.1622 H   0  0  0  0  0  0  0  0  0  0  0  0
  105.9072   66.1130   42.1622 H   0  0  0  0  0  0  0  0  0  0  0  0
  111.8712   65.6760   32.8229 H   0  0  0  0  0  0  0  0  0  0  0  0
  110.1258   65.7235   32.4012 H   0  0  0  0  0  0  0  0  0  0  0  0
  111.0912   67.2382   32.4012 H   0  0  0  0  0  0  0  0  0  0  0  0
  109.0936   67.3187   35.4685 H   0  0  0  0  0  0  0  0  0  0  0  0
  109.0104   67.6627   33.6882 H   0  0  0  0  0  0  0  0  0  0  0  0
  111.6112   66.4779   43.6569 H   0  0  0  0  0  0  0  0  0  0  0  0
  1  2  2  0
  1  3  1  0
  2  4  1  0
  3  8  2  0
  4 11  2  0
  5  8  1  0
  5 12  2  0
  6  9  2  0
  6 10  1  0
  7  9  1  0
  7 24  2  0
  8 11  1  0
  9 15  1  0
 10 13  2  0
 10 18  1  0
 11 25  1  0
 12 23  1  0
 12 25  1  0
 13 24  1  0
 13 26  1  0
 14 19  1  0
 14 26  1  0
 14 29  2  0
 15 16  2  0
 16 17  1  0
 17 28  1  0
 17 30  2  0
 18 27  1  0
 19 27  1  0
 20 25  1  0
 21 27  1  0
 22 28  1  0
 23 28  1  0
  1 31  1  0
  2 32  1  0
  3 33  1  0
  4 34  1  0
  5 35  1  0
  6 36  1  0
  7 37  1  0
 15 38  1  0
 16 39  1  0
 18 40  1  0
 18 41  1  0
 19 42  1  0
 19 43  1  0
 20 44  1  0
 20 45  1  0
 20 46  1  0
 21 47  1  0
 21 48  1  0
 21 49  1  0
 22 50  1  0
 22 51  1  0
 22 52  1  0
 23 53  1  0
 23 54  1  0
 26 55  1  0
M  END
>  <Name>  (76) 
CHEMBL567106

>  <Comment>  (76) 
 Schrodinger Suite 2021-4.

>  <s_m_entry_id>  (76) 
1342

>  <class_value>  (76) 
1

>  <s_m_Source_Path>  (76) 
C:\Users\vinicius\Desktop

>  <s_m_Source_File>  (76) 
Ligands_Saureus_o.sdf

>  <i_m_Source_File_Index>  (76) 
201

>  <r_epik_Ionization_Penalty>  (76) 
0.6351

>  <r_epik_State_Penalty>  (76) 
0.6519

>  <i_epik_Tot_Q>  (76) 
0

>  <i_f3d_flags>  (76) 
0

>  <s_m_job_name>  (76) 
Saureus_o

>  <FRED Chemgauss4 score>  (76) 
-15.819419

>  <Set>  (76) 
training

>  <HBA count>  (76) 
5

>  <HBD count>  (76) 
1

>  <ExactMolWt>  (76) 
403.2008250400008

>  <NumRotatableBounds>  (76) 
7

>  <FractionCsp3>  (76) 
0.2608695652173913

>  <TPSA>  (76) 
70.47

>  <LogP_WildmanCrippen>  (76) 
2.6290000000000013

>  <General_Cluster>  (76) 
1

>  <Biological_Cluster>  (76) 
1

>  <Physicochemical_Cluster>  (76) 
1

>  <Structural_Cluster>  (76) 
2

$$$$
CHEMBL2178288
     RDKit          3D

 31 32  0  0  0  0  0  0  0  0999 V2000
  110.4107   70.2977   34.0847 C   0  0  0  0  0  0  0  0  0  0  0  0
  109.9860   69.1898   34.8181 C   0  0  0  0  0  0  0  0  0  0  0  0
  110.8652   68.8692   32.1900 C   0  0  0  0  0  0  0  0  0  0  0  0
  112.0276   65.4258   37.3413 C   0  0  0  0  0  0  0  0  0  0  0  0
  109.8119   67.1206   37.3087 C   0  0  0  0  0  0  0  0  0  0  0  0
  110.8502   70.1374   32.7706 C   0  0  0  0  0  0  0  0  0  0  0  0
  111.5731   66.0024   38.5273 C   0  0  0  0  0  0  0  0  0  0  0  0
  111.3743   65.6967   36.1389 C   0  0  0  0  0  0  0  0  0  0  0  0
  110.0009   67.9216   34.2375 C   0  0  0  0  0  0  0  0  0  0  0  0
  110.2664   66.5440   36.1227 C   0  0  0  0  0  0  0  0  0  0  0  0
  110.4405   67.7613   32.9234 C   0  0  0  0  0  0  0  0  0  0  0  0
  110.4652   66.8498   38.5110 C   0  0  0  0  0  0  0  0  0  0  0  0
  111.2987   71.3060   31.9969 C   0  0  0  0  0  0  0  0  0  0  0  0
  111.9245   64.3349   40.3664 C   0  0  0  0  0  0  0  0  0  0  0  0
  112.2731   65.7139   39.8124 C   0  0  0  0  0  0  0  0  0  0  0  0
  111.8055   65.1572   35.0577 O   0  0  0  0  0  1  0  0  0  0  0  0
  111.7001   71.1309   30.7856 O   0  0  0  0  0  1  0  0  0  0  0  0
  111.2756   72.4661   32.5563 O   0  0  0  0  0  0  0  0  0  0  0  0
  109.5863   66.8411   34.9535 O   0  0  0  0  0  0  0  0  0  0  0  0
  110.4570   66.5456   32.3599 F   0  0  0  0  0  0  0  0  0  0  0  0
  110.0219   67.4093   39.6454 F   0  0  0  0  0  0  0  0  0  0  0  0
  110.3990   71.2978   34.5426 H   0  0  0  0  0  0  0  0  0  0  0  0
  109.6393   69.3162   35.8544 H   0  0  0  0  0  0  0  0  0  0  0  0
  111.2120   68.7428   31.1538 H   0  0  0  0  0  0  0  0  0  0  0  0
  112.9012   64.7575   37.3542 H   0  0  0  0  0  0  0  0  0  0  0  0
  108.9383   67.7889   37.2959 H   0  0  0  0  0  0  0  0  0  0  0  0
  111.9330   64.3686   41.4659 H   0  0  0  0  0  0  0  0  0  0  0  0
  110.9239   64.0413   40.0163 H   0  0  0  0  0  0  0  0  0  0  0  0
  112.6654   63.6011   40.0163 H   0  0  0  0  0  0  0  0  0  0  0  0
  113.3588   65.7624   39.6422 H   0  0  0  0  0  0  0  0  0  0  0  0
  111.9473   66.4638   40.5482 H   0  0  0  0  0  0  0  0  0  0  0  0
  1  2  2  0
  1  6  1  0
  2  9  1  0
  3  6  2  0
  3 11  1  0
  4  7  2  0
  4  8  1  0
  5 10  1  0
  5 12  2  0
  6 13  1  0
  7 12  1  0
  7 15  1  0
  8 10  2  0
  8 16  1  0
  9 11  2  0
  9 19  1  0
 10 19  1  0
 11 20  1  0
 12 21  1  0
 13 17  1  0
 13 18  2  0
 14 15  1  0
  1 22  1  0
  2 23  1  0
  3 24  1  0
  4 25  1  0
  5 26  1  0
 14 27  1  0
 14 28  1  0
 14 29  1  0
 15 30  1  0
 15 31  1  0
M  CHG  2  16  -1  17  -1
M  END
>  <Name>  (77) 
CHEMBL2178288

>  <Comment>  (77) 
 Schrodinger Suite 2021-4.

>  <s_m_entry_id>  (77) 
1134

>  <class_value>  (77) 
1

>  <s_m_Source_Path>  (77) 
C:\Users\vinicius\Desktop

>  <s_m_Source_File>  (77) 
Ligands_Saureus_o.sdf

>  <i_m_Source_File_Index>  (77) 
48

>  <r_epik_Ionization_Penalty>  (77) 
1.6593

>  <r_epik_State_Penalty>  (77) 
1.7619

>  <i_epik_Tot_Q>  (77) 
-2

>  <i_f3d_flags>  (77) 
0

>  <s_m_job_name>  (77) 
Saureus_o

>  <FRED Chemgauss4 score>  (77) 
-13.608367

>  <Set>  (77) 
training

>  <HBA count>  (77) 
4

>  <HBD count>  (77) 
0

>  <ExactMolWt>  (77) 
292.0558123998203

>  <NumRotatableBounds>  (77) 
5

>  <FractionCsp3>  (77) 
0.13333333333333333

>  <TPSA>  (77) 
72.42

>  <LogP_WildmanCrippen>  (77) 
1.756599999999999

>  <General_Cluster>  (77) 
4

>  <Biological_Cluster>  (77) 
1

>  <Physicochemical_Cluster>  (77) 
3

>  <Structural_Cluster>  (77) 
1

$$$$
CHEMBL3623402
     RDKit          3D

 37 39  0  0  0  0  0  0  0  0999 V2000
  107.3288   62.7196   45.2730 C   0  0  0  0  0  0  0  0  0  0  0  0
  111.3054   66.1323   35.4667 C   0  0  0  0  0  0  0  0  0  0  0  0
  110.4711   66.4194   34.3864 C   0  0  0  0  0  0  0  0  0  0  0  0
  108.3690   63.4051   44.5983 C   0  0  0  0  0  0  0  0  0  0  0  0
  110.0214   68.6043   35.3143 C   0  0  0  0  0  0  0  0  0  0  0  0
  106.4741   62.2226   44.3140 C   0  0  0  0  0  0  0  0  0  0  0  0
  110.8556   68.3172   36.3947 C   0  0  0  0  0  0  0  0  0  0  0  0
  111.4976   67.0812   36.4709 C   0  0  0  0  0  0  0  0  0  0  0  0
  109.8291   67.6554   34.3101 C   0  0  0  0  0  0  0  0  0  0  0  0
  108.1181   63.3064   43.2475 C   0  0  0  0  0  0  0  0  0  0  0  0
  111.0220   64.1446   39.9091 C   0  0  0  0  0  0  0  0  0  0  0  0
  111.2352   66.9014   39.6347 C   0  0  0  0  0  0  0  0  0  0  0  0
  111.7407   66.1900   38.6199 C   0  0  0  0  0  0  0  0  0  0  0  0
  110.5647   64.9912   40.8370 C   0  0  0  0  0  0  0  0  0  0  0  0
  111.6613   64.7110   38.6982 C   0  0  0  0  0  0  0  0  0  0  0  0
  108.8086   63.7949   42.0413 C   0  0  0  0  0  0  0  0  0  0  0  0
  109.9306   64.5282   42.0422 C   0  0  0  0  0  0  0  0  0  0  0  0
  111.0483   69.3437   37.4616 C   0  0  0  0  0  0  0  0  0  0  0  0
  106.9636   62.5857   43.0865 N   0  0  0  0  0  0  0  0  0  0  0  0
  112.1003   63.9882   37.8114 O   0  0  0  0  0  0  0  0  0  0  0  0
  110.6429   66.3652   40.7536 O   0  0  0  0  0  0  0  0  0  0  0  0
  112.3190   66.7835   37.5239 O   0  0  0  0  0  0  0  0  0  0  0  0
  108.7998   68.0102   32.9776 Cl  0  0  0  0  0  0  0  0  0  0  0  0
  107.2232   62.6053   46.3619 H   0  0  0  0  0  0  0  0  0  0  0  0
  111.8118   65.1576   35.5268 H   0  0  0  0  0  0  0  0  0  0  0  0
  110.3194   65.6711   33.5946 H   0  0  0  0  0  0  0  0  0  0  0  0
  109.2201   63.9210   45.0668 H   0  0  0  0  0  0  0  0  0  0  0  0
  109.5152   69.5790   35.2542 H   0  0  0  0  0  0  0  0  0  0  0  0
  105.5610   61.6382   44.5003 H   0  0  0  0  0  0  0  0  0  0  0  0
  110.9263   63.0567   40.0409 H   0  0  0  0  0  0  0  0  0  0  0  0
  111.2984   67.9976   39.5685 H   0  0  0  0  0  0  0  0  0  0  0  0
  108.3700   63.5383   41.0657 H   0  0  0  0  0  0  0  0  0  0  0  0
  110.3873   64.7877   43.0087 H   0  0  0  0  0  0  0  0  0  0  0  0
  110.9589   68.8674   38.4491 H   0  0  0  0  0  0  0  0  0  0  0  0
  112.0467   69.7943   37.3609 H   0  0  0  0  0  0  0  0  0  0  0  0
  110.2813   70.1257   37.3609 H   0  0  0  0  0  0  0  0  0  0  0  0
  106.5302   62.3527   42.1816 H   0  0  0  0  0  0  0  0  0  0  0  0
  1  4  1  0
  1  6  2  0
  2  3  2  0
  2  8  1  0
  3  9  1  0
  4 10  2  0
  5  7  1  0
  5  9  2  0
  6 19  1  0
  7  8  2  0
  7 18  1  0
  8 22  1  0
  9 23  1  0
 10 16  1  0
 10 19  1  0
 11 14  2  0
 11 15  1  0
 12 13  2  0
 12 21  1  0
 13 15  1  0
 13 22  1  0
 14 17  1  0
 14 21  1  0
 15 20  2  0
 16 17  2  0
  1 24  1  0
  2 25  1  0
  3 26  1  0
  4 27  1  0
  5 28  1  0
  6 29  1  0
 11 30  1  0
 12 31  1  0
 16 32  1  0
 17 33  1  0
 18 34  1  0
 18 35  1  0
 18 36  1  0
 19 37  1  0
M  END
>  <Name>  (78) 
CHEMBL3623402

>  <Comment>  (78) 
 Schrodinger Suite 2021-4.

>  <s_m_entry_id>  (78) 
1255

>  <class_value>  (78) 
0

>  <s_m_Source_Path>  (78) 
C:\Users\vinicius\Desktop

>  <s_m_Source_File>  (78) 
Ligands_Saureus_o.sdf

>  <i_m_Source_File_Index>  (78) 
147

>  <r_lp_tautomer_probability>  (78) 
1

>  <r_epik_Ionization_Penalty>  (78) 
0

>  <r_epik_State_Penalty>  (78) 
0

>  <i_epik_Tot_Q>  (78) 
0

>  <i_f3d_flags>  (78) 
0

>  <s_m_job_name>  (78) 
Saureus_o

>  <FRED Chemgauss4 score>  (78) 
-13.040854

>  <Set>  (78) 
training

>  <HBA count>  (78) 
3

>  <HBD count>  (78) 
1

>  <ExactMolWt>  (78) 
327.06622098800034

>  <NumRotatableBounds>  (78) 
5

>  <FractionCsp3>  (78) 
0.05555555555555555

>  <TPSA>  (78) 
55.230000000000004

>  <LogP_WildmanCrippen>  (78) 
4.892420000000003

>  <General_Cluster>  (78) 
4

>  <Biological_Cluster>  (78) 
2

>  <Physicochemical_Cluster>  (78) 
3

>  <Structural_Cluster>  (78) 
1

$$$$
CHEMBL3322730
     RDKit          3D

 52 56  0  0  0  0  0  0  0  0999 V2000
  110.0261   69.5432   31.5552 C   0  0  0  0  0  0  0  0  0  0  0  0
  109.7019   68.1844   31.5246 C   0  0  0  0  0  0  0  0  0  0  0  0
  110.4796   70.1518   32.7335 C   0  0  0  0  0  0  0  0  0  0  0  0
  109.8182   67.3852   32.6658 C   0  0  0  0  0  0  0  0  0  0  0  0
  107.7573   65.4651   42.4162 C   0  0  0  0  0  0  0  0  0  0  0  0
  108.8616   63.7448   43.5843 C   0  0  0  0  0  0  0  0  0  0  0  0
  110.6044   69.3669   33.8932 C   0  0  0  0  0  0  0  0  0  0  0  0
  108.8719   64.6496   42.5522 C   0  0  0  0  0  0  0  0  0  0  0  0
  111.0123   69.5932   35.2342 C   0  0  0  0  0  0  0  0  0  0  0  0
  106.6508   65.3750   43.2873 C   0  0  0  0  0  0  0  0  0  0  0  0
  110.2716   68.0181   33.8217 C   0  0  0  0  0  0  0  0  0  0  0  0
  110.9031   68.3845   35.8820 C   0  0  0  0  0  0  0  0  0  0  0  0
  106.7246   64.3935   44.2793 C   0  0  0  0  0  0  0  0  0  0  0  0
  104.3968   64.4373   45.3267 C   0  0  0  0  0  0  0  0  0  0  0  0
  110.0053   64.7603   41.6537 C   0  0  0  0  0  0  0  0  0  0  0  0
  110.3035   65.8328   40.8820 C   0  0  0  0  0  0  0  0  0  0  0  0
  111.4641   65.8947   39.9752 C   0  0  0  0  0  0  0  0  0  0  0  0
  103.7760   65.3200   44.2820 C   0  0  0  0  0  0  0  0  0  0  0  0
  104.5948   66.5654   44.0514 C   0  0  0  0  0  0  0  0  0  0  0  0
  112.2046   66.9655   37.7763 C   0  0  0  0  0  0  0  0  0  0  0  0
  110.1945   67.4312   38.3085 C   0  0  0  0  0  0  0  0  0  0  0  0
  111.2472   68.1251   37.4082 C   0  0  0  0  0  0  0  0  0  0  0  0
  111.4630   70.8733   35.8145 C   0  0  0  0  0  0  0  0  0  0  0  0
  107.8283   63.6061   44.4384 N   0  0  0  0  0  0  0  0  0  0  0  0
  105.6405   66.2942   43.1008 N   0  0  0  0  0  0  0  0  0  0  0  0
  105.7118   64.0725   45.2117 N   0  0  0  0  0  0  0  0  0  0  0  0
  111.2965   66.6755   38.8689 N   0  0  0  0  0  0  0  0  0  0  0  0
  103.6981   64.0030   46.2488 O   0  0  0  0  0  0  0  0  0  0  0  0
  112.4850   65.2664   40.2430 O   0  0  0  0  0  0  0  0  0  0  0  0
  110.4544   67.4226   35.0339 O   0  0  0  0  0  0  0  0  0  0  0  0
  109.9238   70.1448   30.6400 H   0  0  0  0  0  0  0  0  0  0  0  0
  109.3485   67.7350   30.5848 H   0  0  0  0  0  0  0  0  0  0  0  0
  110.7328   71.2221   32.7505 H   0  0  0  0  0  0  0  0  0  0  0  0
  109.5655   66.3147   32.6521 H   0  0  0  0  0  0  0  0  0  0  0  0
  107.7357   66.2056   41.6031 H   0  0  0  0  0  0  0  0  0  0  0  0
  109.7420   63.0997   43.7214 H   0  0  0  0  0  0  0  0  0  0  0  0
  110.6832   63.8961   41.5937 H   0  0  0  0  0  0  0  0  0  0  0  0
  109.6407   66.7091   40.9351 H   0  0  0  0  0  0  0  0  0  0  0  0
  103.7040   64.7599   43.3380 H   0  0  0  0  0  0  0  0  0  0  0  0
  102.7793   65.6233   44.6351 H   0  0  0  0  0  0  0  0  0  0  0  0
  103.9447   67.3624   43.6612 H   0  0  0  0  0  0  0  0  0  0  0  0
  105.0442   66.8851   45.0032 H   0  0  0  0  0  0  0  0  0  0  0  0
  112.2829   66.1726   37.0179 H   0  0  0  0  0  0  0  0  0  0  0  0
  113.2815   67.1231   37.9357 H   0  0  0  0  0  0  0  0  0  0  0  0
  109.6828   68.0974   39.0186 H   0  0  0  0  0  0  0  0  0  0  0  0
  109.3000   66.9430   37.8944 H   0  0  0  0  0  0  0  0  0  0  0  0
  111.5305   69.1779   37.5544 H   0  0  0  0  0  0  0  0  0  0  0  0
  111.4396   70.8067   36.9122 H   0  0  0  0  0  0  0  0  0  0  0  0
  112.4898   71.0853   35.4819 H   0  0  0  0  0  0  0  0  0  0  0  0
  110.7955   71.6819   35.4819 H   0  0  0  0  0  0  0  0  0  0  0  0
  105.6336   66.8248   42.2180 H   0  0  0  0  0  0  0  0  0  0  0  0
  106.0270   63.4343   45.9562 H   0  0  0  0  0  0  0  0  0  0  0  0
  1  2  2  0
  1  3  1  0
  2  4  1  0
  3  7  2  0
  4 11  2  0
  5  8  2  0
  5 10  1  0
  6  8  1  0
  6 24  2  0
  7  9  1  0
  7 11  1  0
  8 15  1  0
  9 12  2  0
  9 23  1  0
 10 13  2  0
 10 25  1  0
 11 30  1  0
 12 22  1  0
 12 30  1  0
 13 24  1  0
 13 26  1  0
 14 18  1  0
 14 26  1  0
 14 28  2  0
 15 16  2  0
 16 17  1  0
 17 27  1  0
 17 29  2  0
 18 19  1  0
 19 25  1  0
 20 22  1  0
 20 27  1  0
 21 22  1  0
 21 27  1  0
  1 31  1  0
  2 32  1  0
  3 33  1  0
  4 34  1  0
  5 35  1  0
  6 36  1  0
 15 37  1  0
 16 38  1  0
 18 39  1  0
 18 40  1  0
 19 41  1  0
 19 42  1  0
 20 43  1  0
 20 44  1  0
 21 45  1  0
 21 46  1  0
 22 47  1  0
 23 48  1  0
 23 49  1  0
 23 50  1  0
 25 51  1  0
 26 52  1  0
M  END
>  <Name>  (79) 
CHEMBL3322730

>  <Comment>  (79) 
 Schrodinger Suite 2021-4.

>  <s_m_entry_id>  (79) 
1157

>  <class_value>  (79) 
1

>  <s_m_Source_Path>  (79) 
C:\Users\vinicius\Desktop

>  <s_m_Source_File>  (79) 
Ligands_Saureus_o.sdf

>  <i_m_Source_File_Index>  (79) 
65

>  <r_lp_tautomer_probability>  (79) 
1

>  <r_epik_Ionization_Penalty>  (79) 
0.0018

>  <r_epik_State_Penalty>  (79) 
0

>  <i_epik_Tot_Q>  (79) 
0

>  <i_f3d_flags>  (79) 
0

>  <s_m_job_name>  (79) 
Saureus_o

>  <FRED Chemgauss4 score>  (79) 
-13.649381

>  <Set>  (79) 
training

>  <HBA count>  (79) 
5

>  <HBD count>  (79) 
2

>  <ExactMolWt>  (79) 
402.16919056400064

>  <NumRotatableBounds>  (79) 
4

>  <FractionCsp3>  (79) 
0.2608695652173913

>  <TPSA>  (79) 
87.47000000000001

>  <LogP_WildmanCrippen>  (79) 
3.5295200000000015

>  <General_Cluster>  (79) 
1

>  <Biological_Cluster>  (79) 
1

>  <Physicochemical_Cluster>  (79) 
1

>  <Structural_Cluster>  (79) 
2

$$$$
CHEMBL567710
     RDKit          3D

 52 55  0  0  0  0  0  0  0  0999 V2000
  112.1997   72.8919   33.8659 C   0  0  0  0  0  0  0  0  0  0  0  0
  112.4988   72.5560   35.1887 C   0  0  0  0  0  0  0  0  0  0  0  0
  111.4870   72.0119   33.0399 C   0  0  0  0  0  0  0  0  0  0  0  0
  112.0986   71.3326   35.7345 C   0  0  0  0  0  0  0  0  0  0  0  0
  109.9201   67.0414   39.4334 C   0  0  0  0  0  0  0  0  0  0  0  0
  111.9690   66.2083   40.2376 C   0  0  0  0  0  0  0  0  0  0  0  0
  111.0744   70.7762   33.5681 C   0  0  0  0  0  0  0  0  0  0  0  0
  111.1172   66.3909   39.1761 C   0  0  0  0  0  0  0  0  0  0  0  0
  109.5851   67.4963   40.7263 C   0  0  0  0  0  0  0  0  0  0  0  0
  110.3605   69.6500   33.0801 C   0  0  0  0  0  0  0  0  0  0  0  0
  111.3918   70.4790   34.8895 C   0  0  0  0  0  0  0  0  0  0  0  0
  110.2907   68.7540   34.1216 C   0  0  0  0  0  0  0  0  0  0  0  0
  110.5306   67.2936   41.7323 C   0  0  0  0  0  0  0  0  0  0  0  0
  109.5421   68.4617   43.7859 C   0  0  0  0  0  0  0  0  0  0  0  0
  111.4580   65.9302   37.8436 C   0  0  0  0  0  0  0  0  0  0  0  0
  110.9056   66.3823   36.6923 C   0  0  0  0  0  0  0  0  0  0  0  0
  111.3189   65.8031   35.3801 C   0  0  0  0  0  0  0  0  0  0  0  0
  108.2462   68.1562   40.8415 C   0  0  0  0  0  0  0  0  0  0  0  0
  108.4324   69.1750   43.0860 C   0  0  0  0  0  0  0  0  0  0  0  0
  109.8025   69.4729   31.7257 C   0  0  0  0  0  0  0  0  0  0  0  0
  111.0214   65.8005   32.9331 C   0  0  0  0  0  0  0  0  0  0  0  0
  109.6816   67.3893   34.2659 C   0  0  0  0  0  0  0  0  0  0  0  0
  111.7019   66.6372   41.4882 N   0  0  0  0  0  0  0  0  0  0  0  0
  110.4276   67.6935   43.0825 N   0  0  0  0  0  0  0  0  0  0  0  0
  110.6932   66.3342   34.2487 N   0  0  0  0  0  0  0  0  0  0  0  0
  107.6686   68.2723   42.2007 N   0  0  0  0  0  4  0  0  0  0  0  0
  109.6915   68.6332   45.0018 O   0  0  0  0  0  0  0  0  0  0  0  0
  112.1490   64.8935   35.3471 O   0  0  0  0  0  0  0  0  0  0  0  0
  110.9135   69.2473   35.2236 O   0  0  0  0  0  0  0  0  0  0  0  0
  112.5288   73.8625   33.4663 H   0  0  0  0  0  0  0  0  0  0  0  0
  113.0597   73.2675   35.8125 H   0  0  0  0  0  0  0  0  0  0  0  0
  111.2552   72.2828   31.9993 H   0  0  0  0  0  0  0  0  0  0  0  0
  112.3291   71.0586   36.7746 H   0  0  0  0  0  0  0  0  0  0  0  0
  109.2127   67.2073   38.6075 H   0  0  0  0  0  0  0  0  0  0  0  0
  112.9195   65.6845   40.0585 H   0  0  0  0  0  0  0  0  0  0  0  0
  112.2284   65.1494   37.7612 H   0  0  0  0  0  0  0  0  0  0  0  0
  110.1489   67.1800   36.7245 H   0  0  0  0  0  0  0  0  0  0  0  0
  108.3412   69.1732   40.4333 H   0  0  0  0  0  0  0  0  0  0  0  0
  107.5556   67.4991   40.2927 H   0  0  0  0  0  0  0  0  0  0  0  0
  107.7498   69.5960   43.8388 H   0  0  0  0  0  0  0  0  0  0  0  0
  108.8752   69.9673   42.4646 H   0  0  0  0  0  0  0  0  0  0  0  0
  108.7565   69.1409   31.8006 H   0  0  0  0  0  0  0  0  0  0  0  0
  109.8458   70.4289   31.1834 H   0  0  0  0  0  0  0  0  0  0  0  0
  110.3892   68.7168   31.1834 H   0  0  0  0  0  0  0  0  0  0  0  0
  111.5945   64.8686   33.0480 H   0  0  0  0  0  0  0  0  0  0  0  0
  110.0937   65.5945   32.3791 H   0  0  0  0  0  0  0  0  0  0  0  0
  111.6238   66.5355   32.3791 H   0  0  0  0  0  0  0  0  0  0  0  0
  109.1360   67.3428   35.2199 H   0  0  0  0  0  0  0  0  0  0  0  0
  109.0060   67.2266   33.4132 H   0  0  0  0  0  0  0  0  0  0  0  0
  111.1899   67.3239   43.6684 H   0  0  0  0  0  0  0  0  0  0  0  0
  106.7073   68.6326   42.1175 H   0  0  0  0  0  0  0  0  0  0  0  0
  107.6966   67.3341   42.6248 H   0  0  0  0  0  0  0  0  0  0  0  0
  1  2  2  0
  1  3  1  0
  2  4  1  0
  3  7  2  0
  4 11  2  0
  5  8  2  0
  5  9  1  0
  6  8  1  0
  6 23  2  0
  7 10  1  0
  7 11  1  0
  8 15  1  0
  9 13  2  0
  9 18  1  0
 10 12  2  0
 10 20  1  0
 11 29  1  0
 12 22  1  0
 12 29  1  0
 13 23  1  0
 13 24  1  0
 14 19  1  0
 14 24  1  0
 14 27  2  0
 15 16  2  0
 16 17  1  0
 17 25  1  0
 17 28  2  0
 18 26  1  0
 19 26  1  0
 21 25  1  0
 22 25  1  0
  1 30  1  0
  2 31  1  0
  3 32  1  0
  4 33  1  0
  5 34  1  0
  6 35  1  0
 15 36  1  0
 16 37  1  0
 18 38  1  0
 18 39  1  0
 19 40  1  0
 19 41  1  0
 20 42  1  0
 20 43  1  0
 20 44  1  0
 21 45  1  0
 21 46  1  0
 21 47  1  0
 22 48  1  0
 22 49  1  0
 24 50  1  0
 26 51  1  0
 26 52  1  0
M  CHG  1  26   1
M  END
>  <Name>  (80) 
CHEMBL567710

>  <Comment>  (80) 
 Schrodinger Suite 2021-4.

>  <s_m_entry_id>  (80) 
1345

>  <class_value>  (80) 
1

>  <s_m_Source_Path>  (80) 
C:\Users\vinicius\Desktop

>  <s_m_Source_File>  (80) 
Ligands_Saureus_o.sdf

>  <i_m_Source_File_Index>  (80) 
203

>  <r_epik_Ionization_Penalty>  (80) 
0.1687

>  <r_epik_State_Penalty>  (80) 
0.1581

>  <i_epik_Tot_Q>  (80) 
1

>  <i_f3d_flags>  (80) 
0

>  <s_m_job_name>  (80) 
Saureus_o

>  <FRED Chemgauss4 score>  (80) 
-18.723885

>  <Set>  (80) 
training

>  <HBA count>  (80) 
4

>  <HBD count>  (80) 
2

>  <ExactMolWt>  (80) 
391.17646701609067

>  <NumRotatableBounds>  (80) 
6

>  <FractionCsp3>  (80) 
0.22727272727272727

>  <TPSA>  (80) 
92.05

>  <LogP_WildmanCrippen>  (80) 
1.8235200000000005

>  <General_Cluster>  (80) 
1

>  <Biological_Cluster>  (80) 
1

>  <Physicochemical_Cluster>  (80) 
4

>  <Structural_Cluster>  (80) 
2

$$$$
CHEMBL3322713
     RDKit          3D

 54 58  0  0  0  0  0  0  0  0999 V2000
  109.6836   69.2162   31.1527 C   0  0  0  0  0  0  0  0  0  0  0  0
  109.7790   70.3933   31.8890 C   0  0  0  0  0  0  0  0  0  0  0  0
  109.9135   67.9860   31.7694 C   0  0  0  0  0  0  0  0  0  0  0  0
  110.1048   70.3448   33.2447 C   0  0  0  0  0  0  0  0  0  0  0  0
  110.4770   66.6889   33.7700 C   0  0  0  0  0  0  0  0  0  0  0  0
  110.8028   66.6403   35.1257 C   0  0  0  0  0  0  0  0  0  0  0  0
  110.6685   69.0477   35.2454 C   0  0  0  0  0  0  0  0  0  0  0  0
  106.4963   64.0377   43.9926 C   0  0  0  0  0  0  0  0  0  0  0  0
  106.9007   65.3532   45.9284 C   0  0  0  0  0  0  0  0  0  0  0  0
  110.2424   67.9183   33.1330 C   0  0  0  0  0  0  0  0  0  0  0  0
  110.3395   69.1153   33.8817 C   0  0  0  0  0  0  0  0  0  0  0  0
  106.8946   65.2470   44.5489 C   0  0  0  0  0  0  0  0  0  0  0  0
  106.1009   62.9874   44.8223 C   0  0  0  0  0  0  0  0  0  0  0  0
  110.8983   67.8175   35.8620 C   0  0  0  0  0  0  0  0  0  0  0  0
  106.1356   63.1937   46.2010 C   0  0  0  0  0  0  0  0  0  0  0  0
  105.1910   60.9568   46.6364 C   0  0  0  0  0  0  0  0  0  0  0  0
  107.2774   66.3679   43.7100 C   0  0  0  0  0  0  0  0  0  0  0  0
  107.6613   66.2922   42.4137 C   0  0  0  0  0  0  0  0  0  0  0  0
  108.0510   67.4605   41.6039 C   0  0  0  0  0  0  0  0  0  0  0  0
  105.7552   61.6383   44.2689 C   0  0  0  0  0  0  0  0  0  0  0  0
  104.7752   60.9161   45.1800 C   0  0  0  0  0  0  0  0  0  0  0  0
  109.6778   66.0283   40.1708 C   0  0  0  0  0  0  0  0  0  0  0  0
  109.5190   68.0869   39.6075 C   0  0  0  0  0  0  0  0  0  0  0  0
  110.5677   66.9874   39.3568 C   0  0  0  0  0  0  0  0  0  0  0  0
  110.8146   66.6105   37.9094 C   0  0  0  0  0  0  0  0  0  0  0  0
  106.5396   64.3558   46.7663 N   0  0  0  0  0  0  0  0  0  0  0  0
  105.7644   62.1402   47.0582 N   0  0  0  0  0  0  0  0  0  0  0  0
  108.9670   67.2092   40.6238 N   0  0  0  0  0  0  0  0  0  0  0  0
  104.9396   60.0241   47.3993 O   0  0  0  0  0  0  0  0  0  0  0  0
  107.5541   68.5599   41.8352 O   0  0  0  0  0  0  0  0  0  0  0  0
  111.2184   67.7680   37.1948 O   0  0  0  0  0  0  0  0  0  0  0  0
  109.4268   69.2558   30.0838 H   0  0  0  0  0  0  0  0  0  0  0  0
  109.5974   71.3626   31.4017 H   0  0  0  0  0  0  0  0  0  0  0  0
  109.8363   67.0595   31.1814 H   0  0  0  0  0  0  0  0  0  0  0  0
  110.1786   71.2791   33.8206 H   0  0  0  0  0  0  0  0  0  0  0  0
  110.4031   65.7546   33.1941 H   0  0  0  0  0  0  0  0  0  0  0  0
  110.9843   65.6710   35.6130 H   0  0  0  0  0  0  0  0  0  0  0  0
  110.7458   69.9742   35.8333 H   0  0  0  0  0  0  0  0  0  0  0  0
  106.4926   63.9083   42.9002 H   0  0  0  0  0  0  0  0  0  0  0  0
  107.2192   66.3086   46.3708 H   0  0  0  0  0  0  0  0  0  0  0  0
  107.2535   67.3677   44.1680 H   0  0  0  0  0  0  0  0  0  0  0  0
  107.6836   65.3010   41.9372 H   0  0  0  0  0  0  0  0  0  0  0  0
  105.2999   61.7619   43.2752 H   0  0  0  0  0  0  0  0  0  0  0  0
  106.6757   61.0404   44.1965 H   0  0  0  0  0  0  0  0  0  0  0  0
  104.7086   59.8651   44.8624 H   0  0  0  0  0  0  0  0  0  0  0  0
  103.8054   61.4286   45.0972 H   0  0  0  0  0  0  0  0  0  0  0  0
  109.0779   65.3308   39.5678 H   0  0  0  0  0  0  0  0  0  0  0  0
  110.0978   65.2922   40.8720 H   0  0  0  0  0  0  0  0  0  0  0  0
  109.9259   69.0355   39.9877 H   0  0  0  0  0  0  0  0  0  0  0  0
  108.9036   68.5054   38.7975 H   0  0  0  0  0  0  0  0  0  0  0  0
  111.6269   67.1393   39.6118 H   0  0  0  0  0  0  0  0  0  0  0  0
  111.6065   65.8489   37.8562 H   0  0  0  0  0  0  0  0  0  0  0  0
  109.8930   66.2031   37.4682 H   0  0  0  0  0  0  0  0  0  0  0  0
  105.9317   62.2602   48.0674 H   0  0  0  0  0  0  0  0  0  0  0  0
  1  2  2  0
  1  3  1  0
  2  4  1  0
  3 10  2  0
  4 11  2  0
  5  6  2  0
  5 10  1  0
  6 14  1  0
  7 11  1  0
  7 14  2  0
  8 12  2  0
  8 13  1  0
  9 12  1  0
  9 26  2  0
 10 11  1  0
 12 17  1  0
 13 15  2  0
 13 20  1  0
 14 31  1  0
 15 26  1  0
 15 27  1  0
 16 21  1  0
 16 27  1  0
 16 29  2  0
 17 18  2  0
 18 19  1  0
 19 28  1  0
 19 30  2  0
 20 21  1  0
 22 24  1  0
 22 28  1  0
 23 24  1  0
 23 28  1  0
 24 25  1  0
 25 31  1  0
  1 32  1  0
  2 33  1  0
  3 34  1  0
  4 35  1  0
  5 36  1  0
  6 37  1  0
  7 38  1  0
  8 39  1  0
  9 40  1  0
 17 41  1  0
 18 42  1  0
 20 43  1  0
 20 44  1  0
 21 45  1  0
 21 46  1  0
 22 47  1  0
 22 48  1  0
 23 49  1  0
 23 50  1  0
 24 51  1  0
 25 52  1  0
 25 53  1  0
 27 54  1  0
M  END
>  <Name>  (81) 
CHEMBL3322713

>  <Comment>  (81) 
 Schrodinger Suite 2021-4.

>  <s_m_entry_id>  (81) 
1209

>  <class_value>  (81) 
0

>  <s_m_Source_Path>  (81) 
C:\Users\vinicius\Desktop

>  <s_m_Source_File>  (81) 
Ligands_Saureus_o.sdf

>  <i_m_Source_File_Index>  (81) 
107

>  <r_lp_tautomer_probability>  (81) 
1

>  <r_epik_Ionization_Penalty>  (81) 
0.0002

>  <r_epik_State_Penalty>  (81) 
0

>  <i_epik_Tot_Q>  (81) 
0

>  <i_f3d_flags>  (81) 
0

>  <s_m_job_name>  (81) 
Saureus_o

>  <FRED Chemgauss4 score>  (81) 
-13.421412

>  <Set>  (81) 
training

>  <HBA count>  (81) 
4

>  <HBD count>  (81) 
1

>  <ExactMolWt>  (81) 
413.17394159600065

>  <NumRotatableBounds>  (81) 
5

>  <FractionCsp3>  (81) 
0.24

>  <TPSA>  (81) 
71.53

>  <LogP_WildmanCrippen>  (81) 
3.6701000000000024

>  <General_Cluster>  (81) 
1

>  <Biological_Cluster>  (81) 
2

>  <Physicochemical_Cluster>  (81) 
1

>  <Structural_Cluster>  (81) 
2

$$$$
CHEMBL3687975
     RDKit          3D

 54 57  0  0  1  0  0  0  0  0999 V2000
  111.0213   69.3544   34.4904 C   0  0  0  0  0  0  0  0  0  0  0  0
  109.9564   67.5157   33.3405 C   0  0  0  0  0  0  0  0  0  0  0  0
  110.7719   70.1830   33.3965 C   0  0  0  0  0  0  0  0  0  0  0  0
  109.7070   68.3443   32.2465 C   0  0  0  0  0  0  0  0  0  0  0  0
  106.0926   63.3644   43.2816 C   0  0  0  0  0  0  0  0  0  0  0  0
  107.8921   64.1668   44.6081 C   0  0  0  0  0  0  0  0  0  0  0  0
  107.1687   64.2307   43.4304 C   0  0  0  0  0  0  0  0  0  0  0  0
  105.7865   62.4554   44.2954 C   0  0  0  0  0  0  0  0  0  0  0  0
  110.6135   68.0207   34.4625 C   0  0  0  0  0  0  0  0  0  0  0  0
  110.1147   69.6780   32.2745 C   0  0  0  0  0  0  0  0  0  0  0  0
  106.5789   62.4632   45.4428 C   0  0  0  0  0  0  0  0  0  0  0  0
  105.3466   60.5525   46.3998 C   0  0  0  0  0  0  0  0  0  0  0  0
  107.5191   65.1967   42.3747 C   0  0  0  0  0  0  0  0  0  0  0  0
  108.7143   65.7905   42.2400 C   0  0  0  0  0  0  0  0  0  0  0  0
  109.0154   66.7615   41.1688 C   0  0  0  0  0  0  0  0  0  0  0  0
  104.5794   61.5706   44.2173 C   0  0  0  0  0  0  0  0  0  0  0  0
  104.7944   60.2928   45.0130 C   0  0  0  0  0  0  0  0  0  0  0  0
  110.9374   64.5774   38.9315 C   0  0  0  0  0  0  0  0  0  0  0  0
  111.3490   65.5660   37.8453 C   0  0  0  0  0  0  0  0  0  0  0  0
  110.8712   65.2363   40.3080 C   0  0  0  0  0  0  0  0  0  0  0  0
  110.4124   67.4313   39.2531 C   0  0  0  0  0  0  0  0  0  0  0  0
  110.4406   66.8006   37.8566 C   0  0  1  0  0  0  0  0  0  0  0  0
  110.9008   67.8180   36.8145 C   0  0  0  0  0  0  0  0  0  0  0  0
  107.6194   63.3116   45.6188 N   0  0  0  0  0  0  0  0  0  0  0  0
  106.2739   61.5718   46.4892 N   0  0  0  0  0  0  0  0  0  0  0  0
  110.0467   66.4533   40.2830 N   0  0  0  0  0  0  0  0  0  0  0  0
  105.0488   59.8312   47.3518 O   0  0  0  0  0  0  0  0  0  0  0  0
  108.3380   67.7899   41.1268 O   0  0  0  0  0  0  0  0  0  0  0  0
  110.8591   67.2049   35.5395 O   0  0  0  0  0  0  0  0  0  0  0  0
  109.8752   70.4737   31.2240 F   0  0  0  0  0  0  0  0  0  0  0  0
  111.5396   69.7526   35.3751 H   0  0  0  0  0  0  0  0  0  0  0  0
  109.6349   66.4640   33.3184 H   0  0  0  0  0  0  0  0  0  0  0  0
  111.0935   71.2347   33.4186 H   0  0  0  0  0  0  0  0  0  0  0  0
  109.1888   67.9460   31.3617 H   0  0  0  0  0  0  0  0  0  0  0  0
  105.4831   63.3950   42.3664 H   0  0  0  0  0  0  0  0  0  0  0  0
  108.7419   64.8546   44.7295 H   0  0  0  0  0  0  0  0  0  0  0  0
  106.7405   65.4506   41.6403 H   0  0  0  0  0  0  0  0  0  0  0  0
  109.5072   65.5426   42.9611 H   0  0  0  0  0  0  0  0  0  0  0  0
  103.7111   62.1082   44.6260 H   0  0  0  0  0  0  0  0  0  0  0  0
  104.4043   61.3051   43.1643 H   0  0  0  0  0  0  0  0  0  0  0  0
  105.5029   59.6530   44.4664 H   0  0  0  0  0  0  0  0  0  0  0  0
  103.8147   59.8068   45.1315 H   0  0  0  0  0  0  0  0  0  0  0  0
  109.9458   64.1704   38.6843 H   0  0  0  0  0  0  0  0  0  0  0  0
  111.6951   63.7810   38.9716 H   0  0  0  0  0  0  0  0  0  0  0  0
  112.3880   65.8818   38.0207 H   0  0  0  0  0  0  0  0  0  0  0  0
  111.2576   65.0714   36.8670 H   0  0  0  0  0  0  0  0  0  0  0  0
  110.4361   64.5243   41.0247 H   0  0  0  0  0  0  0  0  0  0  0  0
  111.8922   65.5168   40.6061 H   0  0  0  0  0  0  0  0  0  0  0  0
  111.4099   67.8343   39.4824 H   0  0  0  0  0  0  0  0  0  0  0  0
  109.6551   68.2291   39.2537 H   0  0  0  0  0  0  0  0  0  0  0  0
  109.4196   66.4832   37.5982 H   0  0  0  0  0  0  0  0  0  0  0  0
  110.2324   68.6915   36.8283 H   0  0  0  0  0  0  0  0  0  0  0  0
  111.9248   68.1510   37.0393 H   0  0  0  0  0  0  0  0  0  0  0  0
  106.7760   61.6878   47.3810 H   0  0  0  0  0  0  0  0  0  0  0  0
  1  3  2  0
  1  9  1  0
  2  4  1  0
  2  9  2  0
  3 10  1  0
  4 10  2  0
  5  7  2  0
  5  8  1  0
  6  7  1  0
  6 24  2  0
  7 13  1  0
  8 11  2  0
  8 16  1  0
  9 29  1  0
 10 30  1  0
 11 24  1  0
 11 25  1  0
 12 17  1  0
 12 25  1  0
 12 27  2  0
 13 14  2  0
 14 15  1  0
 15 26  1  0
 15 28  2  0
 16 17  1  0
 18 19  1  0
 18 20  1  0
 19 22  1  0
 20 26  1  0
 21 22  1  0
 21 26  1  0
 22 23  1  0
 23 29  1  0
  1 31  1  0
  2 32  1  0
  3 33  1  0
  4 34  1  0
  5 35  1  0
  6 36  1  0
 13 37  1  0
 14 38  1  0
 16 39  1  0
 16 40  1  0
 17 41  1  0
 17 42  1  0
 18 43  1  0
 18 44  1  0
 19 45  1  0
 19 46  1  0
 20 47  1  0
 20 48  1  0
 21 49  1  0
 21 50  1  0
 22 51  1  6
 23 52  1  0
 23 53  1  0
 25 54  1  0
M  END
>  <Name>  (82) 
CHEMBL3687975

>  <Comment>  (82) 
 Schrodinger Suite 2021-4.

>  <s_m_entry_id>  (82) 
1440

>  <s_m_Source_Path>  (82) 
C:\Users\vinicius\Desktop

>  <s_m_Source_File>  (82) 
Ligands_Saureus_failomega.smi

>  <i_m_Source_File_Index>  (82) 
9

>  <r_lp_tautomer_probability>  (82) 
1

>  <r_epik_Ionization_Penalty>  (82) 
0.0002

>  <r_epik_State_Penalty>  (82) 
0

>  <i_epik_Tot_Q>  (82) 
0

>  <i_f3d_flags>  (82) 
0

>  <s_m_job_name>  (82) 
Saureus_fail

>  <class_value>  (82) 
0

>  <FRED Chemgauss4 score>  (82) 
-13.487363

>  <Set>  (82) 
training

>  <HBA count>  (82) 
4

>  <HBD count>  (82) 
1

>  <ExactMolWt>  (82) 
409.1801698480007

>  <NumRotatableBounds>  (82) 
5

>  <FractionCsp3>  (82) 
0.34782608695652173

>  <TPSA>  (82) 
71.53

>  <LogP_WildmanCrippen>  (82) 
3.4362000000000013

>  <General_Cluster>  (82) 
1

>  <Biological_Cluster>  (82) 
2

>  <Physicochemical_Cluster>  (82) 
1

>  <Structural_Cluster>  (82) 
2

$$$$
FULL_M4
     RDKit          3D

 52 55  0  0  0  0  0  0  0  0999 V2000
  111.5849   71.6547   34.4580 C   0  0  0  0  0  0  0  0  0  0  0  0
  110.7689   70.9478   33.5770 C   0  0  0  0  0  0  0  0  0  0  0  0
  111.9209   71.1214   35.7077 C   0  0  0  0  0  0  0  0  0  0  0  0
  109.9783   67.9351   41.0985 C   0  0  0  0  0  0  0  0  0  0  0  0
  108.7321   68.1445   41.6837 C   0  0  0  0  0  0  0  0  0  0  0  0
  110.2637   69.6890   33.9149 C   0  0  0  0  0  0  0  0  0  0  0  0
  111.5555   69.0297   37.2228 C   0  0  0  0  0  0  0  0  0  0  0  0
  109.5156   65.5743   41.0124 C   0  0  0  0  0  0  0  0  0  0  0  0
  111.4234   69.8540   36.0703 C   0  0  0  0  0  0  0  0  0  0  0  0
  110.3722   66.6475   40.7647 C   0  0  0  0  0  0  0  0  0  0  0  0
  107.8615   67.0691   41.9473 C   0  0  0  0  0  0  0  0  0  0  0  0
  110.6079   69.1684   35.1674 C   0  0  0  0  0  0  0  0  0  0  0  0
  108.2456   65.7557   41.5972 C   0  0  0  0  0  0  0  0  0  0  0  0
  110.8308   67.8813   37.0014 C   0  0  0  0  0  0  0  0  0  0  0  0
  106.0199   65.1872   43.6685 C   0  0  0  0  0  0  0  0  0  0  0  0
  111.6727   66.4180   40.1559 C   0  0  0  0  0  0  0  0  0  0  0  0
  106.5274   67.3830   42.5826 C   0  0  0  0  0  0  0  0  0  0  0  0
  106.0963   64.6214   42.2687 C   0  0  0  0  0  0  0  0  0  0  0  0
  109.4220   66.9621   35.1532 C   0  0  0  0  0  0  0  0  0  0  0  0
  106.2906   67.2179   45.0582 C   0  0  0  0  0  0  0  0  0  0  0  0
  113.0530   66.2431   38.0713 C   0  0  0  0  0  0  0  0  0  0  0  0
  110.6304   66.6858   37.8873 C   0  0  0  0  0  0  0  0  0  0  0  0
  110.2632   67.9741   35.7590 N   0  0  0  0  0  0  0  0  0  0  0  0
  107.4660   64.6259   41.8039 N   0  0  0  0  0  0  0  0  0  0  0  0
  106.2630   66.5572   43.7612 N   0  0  0  0  0  0  0  0  0  0  0  0
  111.7830   66.4477   38.7535 N   0  0  0  0  0  0  0  0  0  0  0  0
  105.7693   64.4515   44.6241 O   0  0  0  0  0  0  0  0  0  0  0  0
  112.6247   66.2195   40.9224 O   0  0  0  0  0  0  0  0  0  0  0  0
  111.9695   72.6436   34.1679 H   0  0  0  0  0  0  0  0  0  0  0  0
  110.5183   71.3873   32.6002 H   0  0  0  0  0  0  0  0  0  0  0  0
  112.5655   71.6849   36.3983 H   0  0  0  0  0  0  0  0  0  0  0  0
  110.6468   68.7862   40.9020 H   0  0  0  0  0  0  0  0  0  0  0  0
  108.4223   69.1672   41.9445 H   0  0  0  0  0  0  0  0  0  0  0  0
  109.6193   69.1283   33.2218 H   0  0  0  0  0  0  0  0  0  0  0  0
  112.1332   69.2679   38.1281 H   0  0  0  0  0  0  0  0  0  0  0  0
  109.8403   64.5582   40.7439 H   0  0  0  0  0  0  0  0  0  0  0  0
  106.5196   68.4410   42.8835 H   0  0  0  0  0  0  0  0  0  0  0  0
  105.7439   67.1693   41.8406 H   0  0  0  0  0  0  0  0  0  0  0  0
  105.7170   63.5889   42.2726 H   0  0  0  0  0  0  0  0  0  0  0  0
  105.4862   65.2422   41.5961 H   0  0  0  0  0  0  0  0  0  0  0  0
  108.9319   66.3725   35.9419 H   0  0  0  0  0  0  0  0  0  0  0  0
  108.6570   67.4468   34.5288 H   0  0  0  0  0  0  0  0  0  0  0  0
  110.0384   66.2986   34.5288 H   0  0  0  0  0  0  0  0  0  0  0  0
  106.2590   66.4612   45.8559 H   0  0  0  0  0  0  0  0  0  0  0  0
  107.2142   67.8084   45.1493 H   0  0  0  0  0  0  0  0  0  0  0  0
  105.4195   67.8834   45.1493 H   0  0  0  0  0  0  0  0  0  0  0  0
  113.8525   66.1143   38.8157 H   0  0  0  0  0  0  0  0  0  0  0  0
  112.9901   65.3435   37.4414 H   0  0  0  0  0  0  0  0  0  0  0  0
  113.2758   67.1169   37.4414 H   0  0  0  0  0  0  0  0  0  0  0  0
  109.7429   66.8536   38.5151 H   0  0  0  0  0  0  0  0  0  0  0  0
  110.5009   65.8034   37.2435 H   0  0  0  0  0  0  0  0  0  0  0  0
  107.9002   63.7123   41.6096 H   0  0  0  0  0  0  0  0  0  0  0  0
  1  2  2  0
  1  3  1  0
  2  6  1  0
  3  9  2  0
  4  5  2  0
  4 10  1  0
  5 11  1  0
  6 12  2  0
  7  9  1  0
  7 14  2  0
  8 10  2  0
  8 13  1  0
  9 12  1  0
 10 16  1  0
 11 13  2  0
 11 17  1  0
 12 23  1  0
 13 24  1  0
 14 22  1  0
 14 23  1  0
 15 18  1  0
 15 25  1  0
 15 27  2  0
 16 26  1  0
 16 28  2  0
 17 25  1  0
 18 24  1  0
 19 23  1  0
 20 25  1  0
 21 26  1  0
 22 26  1  0
  1 29  1  0
  2 30  1  0
  3 31  1  0
  4 32  1  0
  5 33  1  0
  6 34  1  0
  7 35  1  0
  8 36  1  0
 17 37  1  0
 17 38  1  0
 18 39  1  0
 18 40  1  0
 19 41  1  0
 19 42  1  0
 19 43  1  0
 20 44  1  0
 20 45  1  0
 20 46  1  0
 21 47  1  0
 21 48  1  0
 21 49  1  0
 22 50  1  0
 22 51  1  0
 24 52  1  0
M  END
>  <Name>  (83) 
FULL_M4

>  <Comment>  (83) 
 Schrodinger Suite 2021-4.

>  <s_m_entry_id>  (83) 
1364

>  <class_value>  (83) 
0

>  <s_m_Source_Path>  (83) 
C:\Users\vinicius\Desktop

>  <s_m_Source_File>  (83) 
Ligands_Saureus_o.sdf

>  <i_m_Source_File_Index>  (83) 
215

>  <r_lp_tautomer_probability>  (83) 
1

>  <r_epik_Ionization_Penalty>  (83) 
0.0001

>  <r_epik_State_Penalty>  (83) 
0

>  <i_epik_Tot_Q>  (83) 
0

>  <i_f3d_flags>  (83) 
0

>  <s_m_job_name>  (83) 
Saureus_o

>  <FRED Chemgauss4 score>  (83) 
-13.190831

>  <Set>  (83) 
training

>  <HBA count>  (83) 
4

>  <HBD count>  (83) 
1

>  <ExactMolWt>  (83) 
376.1899260080007

>  <NumRotatableBounds>  (83) 
6

>  <FractionCsp3>  (83) 
0.2727272727272727

>  <TPSA>  (83) 
57.580000000000005

>  <LogP_WildmanCrippen>  (83) 
2.8344000000000005

>  <General_Cluster>  (83) 
3

>  <Biological_Cluster>  (83) 
2

>  <Physicochemical_Cluster>  (83) 
1

>  <Structural_Cluster>  (83) 
4

$$$$
CHEMBL3623420
     RDKit          3D

 50 53  0  0  0  0  0  0  0  0999 V2000
  109.4919   69.2401   45.3371 C   0  0  0  0  0  0  0  0  0  0  0  0
  105.1121   62.3280   44.8576 C   0  0  0  0  0  0  0  0  0  0  0  0
  108.2155   68.7181   45.1278 C   0  0  0  0  0  0  0  0  0  0  0  0
  110.3608   69.4110   44.2593 C   0  0  0  0  0  0  0  0  0  0  0  0
  105.3196   63.7070   44.8311 C   0  0  0  0  0  0  0  0  0  0  0  0
  105.8148   61.5000   43.9821 C   0  0  0  0  0  0  0  0  0  0  0  0
  107.8079   68.3669   43.8409 C   0  0  0  0  0  0  0  0  0  0  0  0
  109.9533   69.0598   42.9724 C   0  0  0  0  0  0  0  0  0  0  0  0
  106.2297   64.2582   43.9291 C   0  0  0  0  0  0  0  0  0  0  0  0
  106.7249   62.0512   43.0801 C   0  0  0  0  0  0  0  0  0  0  0  0
  111.1602   69.0572   37.1696 C   0  0  0  0  0  0  0  0  0  0  0  0
  110.6648   69.6997   36.0350 C   0  0  0  0  0  0  0  0  0  0  0  0
  110.5080   67.5730   34.8993 C   0  0  0  0  0  0  0  0  0  0  0  0
  108.6769   68.5378   42.7631 C   0  0  0  0  0  0  0  0  0  0  0  0
  106.9324   63.4303   43.0536 C   0  0  0  0  0  0  0  0  0  0  0  0
  111.3296   67.6726   37.1691 C   0  0  0  0  0  0  0  0  0  0  0  0
  110.3387   68.9576   34.8998 C   0  0  0  0  0  0  0  0  0  0  0  0
  111.0034   66.9306   36.0339 C   0  0  0  0  0  0  0  0  0  0  0  0
  109.8052   64.8351   40.6175 C   0  0  0  0  0  0  0  0  0  0  0  0
  110.0542   67.4966   39.8378 C   0  0  0  0  0  0  0  0  0  0  0  0
  110.9000   66.6528   39.2299 C   0  0  0  0  0  0  0  0  0  0  0  0
  109.0112   65.7818   41.1565 C   0  0  0  0  0  0  0  0  0  0  0  0
  110.8208   65.2156   39.5994 C   0  0  0  0  0  0  0  0  0  0  0  0
  108.2390   68.1597   41.3777 C   0  0  0  0  0  0  0  0  0  0  0  0
  107.9897   65.3765   42.1875 C   0  0  0  0  0  0  0  0  0  0  0  0
  109.1060   67.1375   40.7889 N   0  0  0  0  0  0  0  0  0  0  0  0
  111.5559   64.3758   39.0925 O   0  0  0  0  0  0  0  0  0  0  0  0
  111.8173   67.0685   38.2959 O   0  0  0  0  0  0  0  0  0  0  0  0
  107.8280   63.9730   42.1636 O   0  0  0  0  0  0  0  0  0  0  0  0
  109.7278   69.7517   33.5004 Cl  0  0  0  0  0  0  0  0  0  0  0  0
  111.2035   65.2174   36.0061 Cl  0  0  0  0  0  0  0  0  0  0  0  0
  109.8133   69.5170   46.3520 H   0  0  0  0  0  0  0  0  0  0  0  0
  104.3943   61.8934   45.5689 H   0  0  0  0  0  0  0  0  0  0  0  0
  107.5303   68.5834   45.9777 H   0  0  0  0  0  0  0  0  0  0  0  0
  111.3674   69.8228   44.4243 H   0  0  0  0  0  0  0  0  0  0  0  0
  104.7655   64.3599   45.5215 H   0  0  0  0  0  0  0  0  0  0  0  0
  105.6512   60.4124   44.0030 H   0  0  0  0  0  0  0  0  0  0  0  0
  106.8013   67.9552   43.6759 H   0  0  0  0  0  0  0  0  0  0  0  0
  110.6386   69.1945   42.1225 H   0  0  0  0  0  0  0  0  0  0  0  0
  106.3933   65.3458   43.9082 H   0  0  0  0  0  0  0  0  0  0  0  0
  107.2790   61.3983   42.3897 H   0  0  0  0  0  0  0  0  0  0  0  0
  111.4173   69.6424   38.0648 H   0  0  0  0  0  0  0  0  0  0  0  0
  110.5313   70.7916   36.0354 H   0  0  0  0  0  0  0  0  0  0  0  0
  110.2508   66.9878   34.0041 H   0  0  0  0  0  0  0  0  0  0  0  0
  109.7025   63.7852   40.9293 H   0  0  0  0  0  0  0  0  0  0  0  0
  110.1154   68.5596   39.5616 H   0  0  0  0  0  0  0  0  0  0  0  0
  107.2113   67.7702   41.4239 H   0  0  0  0  0  0  0  0  0  0  0  0
  108.2956   69.0585   40.7461 H   0  0  0  0  0  0  0  0  0  0  0  0
  108.3315   65.6893   43.1851 H   0  0  0  0  0  0  0  0  0  0  0  0
  107.0281   65.8604   41.9611 H   0  0  0  0  0  0  0  0  0  0  0  0
  1  3  2  0
  1  4  1  0
  2  5  2  0
  2  6  1  0
  3  7  1  0
  4  8  2  0
  5  9  1  0
  6 10  2  0
  7 14  2  0
  8 14  1  0
  9 15  2  0
 10 15  1  0
 11 12  2  0
 11 16  1  0
 12 17  1  0
 13 17  2  0
 13 18  1  0
 14 24  1  0
 15 29  1  0
 16 18  2  0
 16 28  1  0
 17 30  1  0
 18 31  1  0
 19 22  2  0
 19 23  1  0
 20 21  2  0
 20 26  1  0
 21 23  1  0
 21 28  1  0
 22 25  1  0
 22 26  1  0
 23 27  2  0
 24 26  1  0
 25 29  1  0
  1 32  1  0
  2 33  1  0
  3 34  1  0
  4 35  1  0
  5 36  1  0
  6 37  1  0
  7 38  1  0
  8 39  1  0
  9 40  1  0
 10 41  1  0
 11 42  1  0
 12 43  1  0
 13 44  1  0
 19 45  1  0
 20 46  1  0
 24 47  1  0
 24 48  1  0
 25 49  1  0
 25 50  1  0
M  END
>  <Name>  (84) 
CHEMBL3623420

>  <Comment>  (84) 
 Schrodinger Suite 2021-4.

>  <s_m_entry_id>  (84) 
1207

>  <class_value>  (84) 
0

>  <s_m_Source_Path>  (84) 
C:\Users\vinicius\Desktop

>  <s_m_Source_File>  (84) 
Ligands_Saureus_o.sdf

>  <i_m_Source_File_Index>  (84) 
105

>  <r_lp_tautomer_probability>  (84) 
1

>  <r_epik_Ionization_Penalty>  (84) 
0

>  <r_epik_State_Penalty>  (84) 
0

>  <i_epik_Tot_Q>  (84) 
0

>  <i_f3d_flags>  (84) 
0

>  <s_m_job_name>  (84) 
Saureus_o

>  <FRED Chemgauss4 score>  (84) 
-11.549108

>  <Set>  (84) 
training

>  <HBA count>  (84) 
4

>  <HBD count>  (84) 
0

>  <ExactMolWt>  (84) 
451.0741988280005

>  <NumRotatableBounds>  (84) 
7

>  <FractionCsp3>  (84) 
0.08

>  <TPSA>  (84) 
40.46

>  <LogP_WildmanCrippen>  (84) 
6.574700000000003

>  <General_Cluster>  (84) 
1

>  <Biological_Cluster>  (84) 
2

>  <Physicochemical_Cluster>  (84) 
1

>  <Structural_Cluster>  (84) 
5

$$$$
CHEMBL73580
     RDKit          3D

 52 56  0  0  0  0  0  0  0  0999 V2000
  108.2359   62.5749   43.4225 C   0  0  0  0  0  0  0  0  0  0  0  0
  107.3332   63.6036   43.6830 C   0  0  0  0  0  0  0  0  0  0  0  0
  109.2588   62.7406   42.4819 C   0  0  0  0  0  0  0  0  0  0  0  0
  112.3400   68.6020   37.4332 C   0  0  0  0  0  0  0  0  0  0  0  0
  107.4314   68.5776   43.3501 C   0  0  0  0  0  0  0  0  0  0  0  0
  109.7453   68.5565   42.6554 C   0  0  0  0  0  0  0  0  0  0  0  0
  107.4228   64.8276   43.0142 C   0  0  0  0  0  0  0  0  0  0  0  0
  112.1620   69.8911   36.9309 C   0  0  0  0  0  0  0  0  0  0  0  0
  107.7687   69.3667   44.4498 C   0  0  0  0  0  0  0  0  0  0  0  0
  110.0826   69.3456   43.7551 C   0  0  0  0  0  0  0  0  0  0  0  0
  110.7359   67.7580   35.8358 C   0  0  0  0  0  0  0  0  0  0  0  0
  109.3709   63.9659   41.7945 C   0  0  0  0  0  0  0  0  0  0  0  0
  111.6270   67.5355   36.8856 C   0  0  0  0  0  0  0  0  0  0  0  0
  110.2548   64.4749   40.8046 C   0  0  0  0  0  0  0  0  0  0  0  0
  108.4197   68.1725   42.4530 C   0  0  0  0  0  0  0  0  0  0  0  0
  108.4497   64.9812   42.0758 C   0  0  0  0  0  0  0  0  0  0  0  0
  109.0943   69.7506   44.6522 C   0  0  0  0  0  0  0  0  0  0  0  0
  111.2709   70.1136   35.8811 C   0  0  0  0  0  0  0  0  0  0  0  0
  110.5579   69.0471   35.3335 C   0  0  0  0  0  0  0  0  0  0  0  0
  109.8547   65.7610   40.5091 C   0  0  0  0  0  0  0  0  0  0  0  0
  111.8153   66.1765   37.4158 C   0  0  0  0  0  0  0  0  0  0  0  0
  111.4177   63.8503   40.1177 C   0  0  0  0  0  0  0  0  0  0  0  0
  110.4886   66.6865   39.5342 C   0  0  0  0  0  0  0  0  0  0  0  0
  112.3132   64.9433   39.5094 C   0  0  0  0  0  0  0  0  0  0  0  0
  108.0558   67.3217   41.2662 C   0  0  0  0  0  0  0  0  0  0  0  0
  108.7691   66.0619   41.2806 N   0  0  0  0  0  0  0  0  0  0  0  0
  111.5221   65.9470   38.7652 N   0  0  0  0  0  0  0  0  0  0  0  0
  112.2292   65.3333   36.6213 O   0  0  0  0  0  0  0  0  0  0  0  0
  109.4231   70.5217   45.7246 O   0  0  0  0  0  0  0  0  0  0  0  0
  111.1171   71.3836   35.4103 O   0  0  0  0  0  0  0  0  0  0  0  0
  109.4494   69.2942   34.0348 Cl  0  0  0  0  0  0  0  0  0  0  0  0
  108.1435   61.6211   43.9626 H   0  0  0  0  0  0  0  0  0  0  0  0
  106.5374   63.4501   44.4268 H   0  0  0  0  0  0  0  0  0  0  0  0
  109.9675   61.9236   42.2813 H   0  0  0  0  0  0  0  0  0  0  0  0
  113.0426   68.4265   38.2611 H   0  0  0  0  0  0  0  0  0  0  0  0
  106.3860   68.2748   43.1904 H   0  0  0  0  0  0  0  0  0  0  0  0
  110.5246   68.2371   41.9479 H   0  0  0  0  0  0  0  0  0  0  0  0
  106.7114   65.6414   43.2182 H   0  0  0  0  0  0  0  0  0  0  0  0
  112.7243   70.7322   37.3627 H   0  0  0  0  0  0  0  0  0  0  0  0
  106.9894   69.6862   45.1573 H   0  0  0  0  0  0  0  0  0  0  0  0
  111.1280   69.6485   43.9148 H   0  0  0  0  0  0  0  0  0  0  0  0
  110.1736   66.9169   35.4040 H   0  0  0  0  0  0  0  0  0  0  0  0
  111.9994   63.2644   40.8445 H   0  0  0  0  0  0  0  0  0  0  0  0
  111.0542   63.1910   39.3157 H   0  0  0  0  0  0  0  0  0  0  0  0
  109.7246   67.0758   38.8451 H   0  0  0  0  0  0  0  0  0  0  0  0
  110.9547   67.5269   40.0693 H   0  0  0  0  0  0  0  0  0  0  0  0
  112.8589   65.4489   40.3197 H   0  0  0  0  0  0  0  0  0  0  0  0
  113.0089   64.4640   38.8049 H   0  0  0  0  0  0  0  0  0  0  0  0
  106.9745   67.1210   41.2879 H   0  0  0  0  0  0  0  0  0  0  0  0
  108.3335   67.8663   40.3517 H   0  0  0  0  0  0  0  0  0  0  0  0
  110.3639   70.7943   45.8684 H   0  0  0  0  0  0  0  0  0  0  0  0
  110.4897   71.5629   34.6658 H   0  0  0  0  0  0  0  0  0  0  0  0
  1  2  2  0
  1  3  1  0
  2  7  1  0
  3 12  2  0
  4  8  2  0
  4 13  1  0
  5  9  2  0
  5 15  1  0
  6 10  1  0
  6 15  2  0
  7 16  2  0
  8 18  1  0
  9 17  1  0
 10 17  2  0
 11 13  2  0
 11 19  1  0
 12 14  1  0
 12 16  1  0
 13 21  1  0
 14 20  2  0
 14 22  1  0
 15 25  1  0
 16 26  1  0
 17 29  1  0
 18 19  2  0
 18 30  1  0
 19 31  1  0
 20 23  1  0
 20 26  1  0
 21 27  1  0
 21 28  2  0
 22 24  1  0
 23 27  1  0
 24 27  1  0
 25 26  1  0
  1 32  1  0
  2 33  1  0
  3 34  1  0
  4 35  1  0
  5 36  1  0
  6 37  1  0
  7 38  1  0
  8 39  1  0
  9 40  1  0
 10 41  1  0
 11 42  1  0
 22 43  1  0
 22 44  1  0
 23 45  1  0
 23 46  1  0
 24 47  1  0
 24 48  1  0
 25 49  1  0
 25 50  1  0
 29 51  1  0
 30 52  1  0
M  END
>  <Name>  (85) 
CHEMBL73580

>  <Comment>  (85) 
 Schrodinger Suite 2021-4.

>  <s_m_entry_id>  (85) 
1125

>  <class_value>  (85) 
1

>  <s_m_Source_Path>  (85) 
C:\Users\vinicius\Desktop

>  <s_m_Source_File>  (85) 
Ligands_Saureus_o.sdf

>  <i_m_Source_File_Index>  (85) 
42

>  <r_lp_tautomer_probability>  (85) 
0.99999999999473

>  <r_epik_Ionization_Penalty>  (85) 
0.2955

>  <r_epik_State_Penalty>  (85) 
0.2884

>  <i_epik_Tot_Q>  (85) 
0

>  <i_f3d_flags>  (85) 
0

>  <s_m_job_name>  (85) 
Saureus_o

>  <FRED Chemgauss4 score>  (85) 
-11.251367

>  <Set>  (85) 
training

>  <HBA count>  (85) 
4

>  <HBD count>  (85) 
2

>  <ExactMolWt>  (85) 
432.12407021200056

>  <NumRotatableBounds>  (85) 
5

>  <FractionCsp3>  (85) 
0.16

>  <TPSA>  (85) 
65.7

>  <LogP_WildmanCrippen>  (85) 
4.9527000000000045

>  <General_Cluster>  (85) 
3

>  <Biological_Cluster>  (85) 
1

>  <Physicochemical_Cluster>  (85) 
1

>  <Structural_Cluster>  (85) 
4

$$$$
CHEMBL291805
     RDKit          3D

 39 41  0  0  0  0  0  0  0  0999 V2000
  110.7144   66.3002   41.5392 C   0  0  0  0  0  0  0  0  0  0  0  0
  109.5392   68.0136   40.3061 C   0  0  0  0  0  0  0  0  0  0  0  0
  109.2578   68.6736   34.0464 C   0  0  0  0  0  0  0  0  0  0  0  0
  111.0510   67.5182   32.9121 C   0  0  0  0  0  0  0  0  0  0  0  0
  109.0934   67.5818   34.8987 C   0  0  0  0  0  0  0  0  0  0  0  0
  110.8867   66.4264   33.7645 C   0  0  0  0  0  0  0  0  0  0  0  0
  110.4264   66.9617   42.7329 C   0  0  0  0  0  0  0  0  0  0  0  0
  109.2511   68.6750   41.4999 C   0  0  0  0  0  0  0  0  0  0  0  0
  111.6259   65.3456   38.7186 C   0  0  0  0  0  0  0  0  0  0  0  0
  110.2709   66.8262   40.3257 C   0  0  0  0  0  0  0  0  0  0  0  0
  110.2366   68.6418   33.0530 C   0  0  0  0  0  0  0  0  0  0  0  0
  109.9078   66.4582   34.7578 C   0  0  0  0  0  0  0  0  0  0  0  0
  109.6947   68.1491   42.7133 C   0  0  0  0  0  0  0  0  0  0  0  0
  110.5689   66.1421   39.0912 C   0  0  0  0  0  0  0  0  0  0  0  0
  110.3501   65.4308   37.0169 C   0  0  0  0  0  0  0  0  0  0  0  0
  110.4129   69.8087   32.1413 C   0  0  0  0  0  0  0  0  0  0  0  0
  109.8975   68.2015   45.0822 C   0  0  0  0  0  0  0  0  0  0  0  0
  109.7290   65.2676   35.6897 C   0  0  0  0  0  0  0  0  0  0  0  0
  111.4839   64.9063   37.4261 N   0  0  0  0  0  0  0  0  0  0  0  0
  109.7602   66.1878   37.9907 N   0  0  0  0  0  0  0  0  0  0  0  0
  109.4135   68.7945   43.8781 O   0  0  0  0  0  0  0  0  0  0  0  0
  111.2913   65.3637   41.5547 H   0  0  0  0  0  0  0  0  0  0  0  0
  109.1894   68.4284   39.3492 H   0  0  0  0  0  0  0  0  0  0  0  0
  108.6156   69.5597   34.1576 H   0  0  0  0  0  0  0  0  0  0  0  0
  111.8228   67.4931   32.1288 H   0  0  0  0  0  0  0  0  0  0  0  0
  108.3215   67.6069   35.6820 H   0  0  0  0  0  0  0  0  0  0  0  0
  111.5290   65.5403   33.6534 H   0  0  0  0  0  0  0  0  0  0  0  0
  110.7763   66.5470   43.6898 H   0  0  0  0  0  0  0  0  0  0  0  0
  108.6740   69.6114   41.4845 H   0  0  0  0  0  0  0  0  0  0  0  0
  112.4746   65.0934   39.3713 H   0  0  0  0  0  0  0  0  0  0  0  0
  110.5510   70.7225   32.7379 H   0  0  0  0  0  0  0  0  0  0  0  0
  111.2970   69.6480   31.5068 H   0  0  0  0  0  0  0  0  0  0  0  0
  109.5208   69.9163   31.5068 H   0  0  0  0  0  0  0  0  0  0  0  0
  109.4685   68.7272   45.9480 H   0  0  0  0  0  0  0  0  0  0  0  0
  109.6028   67.1422   45.1135 H   0  0  0  0  0  0  0  0  0  0  0  0
  110.9944   68.2780   45.1135 H   0  0  0  0  0  0  0  0  0  0  0  0
  108.6510   65.1024   35.8329 H   0  0  0  0  0  0  0  0  0  0  0  0
  110.2349   64.4166   35.2103 H   0  0  0  0  0  0  0  0  0  0  0  0
  108.8696   66.6988   37.9096 H   0  0  0  0  0  0  0  0  0  0  0  0
  1  7  2  0
  1 10  1  0
  2  8  1  0
  2 10  2  0
  3  5  2  0
  3 11  1  0
  4  6  1  0
  4 11  2  0
  5 12  1  0
  6 12  2  0
  7 13  1  0
  8 13  2  0
  9 14  2  0
  9 19  1  0
 10 14  1  0
 11 16  1  0
 12 18  1  0
 13 21  1  0
 14 20  1  0
 15 18  1  0
 15 19  2  0
 15 20  1  0
 17 21  1  0
  1 22  1  0
  2 23  1  0
  3 24  1  0
  4 25  1  0
  5 26  1  0
  6 27  1  0
  7 28  1  0
  8 29  1  0
  9 30  1  0
 16 31  1  0
 16 32  1  0
 16 33  1  0
 17 34  1  0
 17 35  1  0
 17 36  1  0
 18 37  1  0
 18 38  1  0
 20 39  1  0
M  END
>  <Name>  (86) 
CHEMBL291805

>  <Comment>  (86) 
 Schrodinger Suite 2021-4.

>  <s_m_entry_id>  (86) 
1328

>  <class_value>  (86) 
0

>  <s_m_Source_Path>  (86) 
C:\Users\vinicius\Desktop

>  <s_m_Source_File>  (86) 
Ligands_Saureus_o.sdf

>  <i_m_Source_File_Index>  (86) 
194

>  <r_lp_tautomer_probability>  (86) 
0.499999999999999

>  <r_epik_Ionization_Penalty>  (86) 
0.2704

>  <r_epik_State_Penalty>  (86) 
0.6443

>  <i_epik_Tot_Q>  (86) 
0

>  <i_f3d_flags>  (86) 
0

>  <s_m_job_name>  (86) 
Saureus_o

>  <FRED Chemgauss4 score>  (86) 
-12.966116

>  <Set>  (86) 
training

>  <HBA count>  (86) 
2

>  <HBD count>  (86) 
1

>  <ExactMolWt>  (86) 
278.1419131960005

>  <NumRotatableBounds>  (86) 
6

>  <FractionCsp3>  (86) 
0.16666666666666666

>  <TPSA>  (86) 
37.91

>  <LogP_WildmanCrippen>  (86) 
3.9845200000000025

>  <General_Cluster>  (86) 
2

>  <Biological_Cluster>  (86) 
2

>  <Physicochemical_Cluster>  (86) 
3

>  <Structural_Cluster>  (86) 
3

$$$$
CHEMBL294363
     RDKit          3D

 40 43  0  0  0  0  0  0  0  0999 V2000
  109.7862   68.9392   31.9965 C   0  0  0  0  0  0  0  0  0  0  0  0
  109.7315   69.8256   33.0720 C   0  0  0  0  0  0  0  0  0  0  0  0
  110.1280   67.6038   32.2100 C   0  0  0  0  0  0  0  0  0  0  0  0
  110.0185   69.3767   34.3611 C   0  0  0  0  0  0  0  0  0  0  0  0
  110.4150   67.1548   33.4990 C   0  0  0  0  0  0  0  0  0  0  0  0
  110.3901   66.2535   36.2658 C   0  0  0  0  0  0  0  0  0  0  0  0
  111.2123   68.4497   36.8471 C   0  0  0  0  0  0  0  0  0  0  0  0
  110.6771   65.8048   37.5549 C   0  0  0  0  0  0  0  0  0  0  0  0
  111.4992   68.0010   38.1363 C   0  0  0  0  0  0  0  0  0  0  0  0
  108.4379   63.2241   43.5152 C   0  0  0  0  0  0  0  0  0  0  0  0
  109.9070   64.9235   41.3171 C   0  0  0  0  0  0  0  0  0  0  0  0
  107.4499   62.5388   44.1874 C   0  0  0  0  0  0  0  0  0  0  0  0
  106.5510   64.4391   42.9105 C   0  0  0  0  0  0  0  0  0  0  0  0
  109.4586   67.0560   40.9275 C   0  0  0  0  0  0  0  0  0  0  0  0
  110.3603   68.0413   34.5746 C   0  0  0  0  0  0  0  0  0  0  0  0
  110.6578   67.5760   35.9119 C   0  0  0  0  0  0  0  0  0  0  0  0
  107.9173   64.3250   42.7756 C   0  0  0  0  0  0  0  0  0  0  0  0
  111.2316   66.6785   38.4902 C   0  0  0  0  0  0  0  0  0  0  0  0
  108.7432   65.2343   41.9620 C   0  0  0  0  0  0  0  0  0  0  0  0
  111.5386   66.1987   39.8685 C   0  0  0  0  0  0  0  0  0  0  0  0
  110.3272   66.0688   40.6850 N   0  0  0  0  0  0  0  0  0  0  0  0
  108.4899   66.5600   41.7039 N   0  0  0  0  0  4  0  0  0  0  0  0
  105.9018   63.2225   43.9257 S   0  0  0  0  0  0  0  0  0  0  0  0
  109.5598   69.2932   30.9799 H   0  0  0  0  0  0  0  0  0  0  0  0
  109.4620   70.8787   32.9036 H   0  0  0  0  0  0  0  0  0  0  0  0
  110.1712   66.9048   31.3618 H   0  0  0  0  0  0  0  0  0  0  0  0
  109.9753   70.0758   35.2093 H   0  0  0  0  0  0  0  0  0  0  0  0
  110.6845   66.1017   33.6674 H   0  0  0  0  0  0  0  0  0  0  0  0
  109.9527   65.5645   35.5283 H   0  0  0  0  0  0  0  0  0  0  0  0
  111.4234   69.4926   36.5680 H   0  0  0  0  0  0  0  0  0  0  0  0
  110.4661   64.7619   37.8340 H   0  0  0  0  0  0  0  0  0  0  0  0
  111.9365   68.6900   38.8739 H   0  0  0  0  0  0  0  0  0  0  0  0
  109.5036   62.9532   43.5458 H   0  0  0  0  0  0  0  0  0  0  0  0
  110.4102   63.9454   41.3061 H   0  0  0  0  0  0  0  0  0  0  0  0
  107.6337   61.6564   44.8179 H   0  0  0  0  0  0  0  0  0  0  0  0
  105.9482   65.2197   42.4235 H   0  0  0  0  0  0  0  0  0  0  0  0
  109.5284   68.0889   40.5556 H   0  0  0  0  0  0  0  0  0  0  0  0
  112.0296   65.2166   39.8020 H   0  0  0  0  0  0  0  0  0  0  0  0
  112.1955   66.9389   40.3487 H   0  0  0  0  0  0  0  0  0  0  0  0
  107.6790   67.0897   42.0544 H   0  0  0  0  0  0  0  0  0  0  0  0
  1  2  2  0
  1  3  1  0
  2  4  1  0
  3  5  2  0
  4 15  2  0
  5 15  1  0
  6  8  2  0
  6 16  1  0
  7  9  1  0
  7 16  2  0
  8 18  1  0
  9 18  2  0
 10 12  2  0
 10 17  1  0
 11 19  2  0
 11 21  1  0
 12 23  1  0
 13 17  2  0
 13 23  1  0
 14 21  1  0
 14 22  2  0
 15 16  1  0
 17 19  1  0
 18 20  1  0
 19 22  1  0
 20 21  1  0
  1 24  1  0
  2 25  1  0
  3 26  1  0
  4 27  1  0
  5 28  1  0
  6 29  1  0
  7 30  1  0
  8 31  1  0
  9 32  1  0
 10 33  1  0
 11 34  1  0
 12 35  1  0
 13 36  1  0
 14 37  1  0
 20 38  1  0
 20 39  1  0
 22 40  1  0
M  CHG  1  22   1
M  END
>  <Name>  (87) 
CHEMBL294363

>  <Comment>  (87) 
 Schrodinger Suite 2021-4.

>  <s_m_entry_id>  (87) 
1324

>  <class_value>  (87) 
0

>  <s_m_Source_Path>  (87) 
C:\Users\vinicius\Desktop

>  <s_m_Source_File>  (87) 
Ligands_Saureus_o.sdf

>  <i_m_Source_File_Index>  (87) 
192

>  <r_lp_tautomer_probability>  (87) 
1

>  <r_epik_Ionization_Penalty>  (87) 
0.5235

>  <r_epik_State_Penalty>  (87) 
0.5317

>  <i_epik_Tot_Q>  (87) 
1

>  <i_f3d_flags>  (87) 
0

>  <s_m_job_name>  (87) 
Saureus_o

>  <FRED Chemgauss4 score>  (87) 
-13.920931

>  <Set>  (87) 
training

>  <HBA count>  (87) 
2

>  <HBD count>  (87) 
0

>  <ExactMolWt>  (87) 
317.1106959640905

>  <NumRotatableBounds>  (87) 
4

>  <FractionCsp3>  (87) 
0.05

>  <TPSA>  (87) 
19.07

>  <LogP_WildmanCrippen>  (87) 
4.746000000000003

>  <General_Cluster>  (87) 
4

>  <Biological_Cluster>  (87) 
2

>  <Physicochemical_Cluster>  (87) 
3

>  <Structural_Cluster>  (87) 
1

$$$$
CHEMBL3676420
     RDKit          3D

 58 61  0  0  1  0  0  0  0  0999 V2000
  110.4201   66.7841   33.4124 C   0  0  0  0  0  0  0  0  0  0  0  0
  109.6266   68.4995   34.9173 C   0  0  0  0  0  0  0  0  0  0  0  0
  110.3310   67.6786   32.3458 C   0  0  0  0  0  0  0  0  0  0  0  0
  109.5375   69.3940   33.8508 C   0  0  0  0  0  0  0  0  0  0  0  0
  107.8066   64.3927   43.6759 C   0  0  0  0  0  0  0  0  0  0  0  0
  106.8998   66.5873   43.7132 C   0  0  0  0  0  0  0  0  0  0  0  0
  107.9149   65.7321   43.3229 C   0  0  0  0  0  0  0  0  0  0  0  0
  106.6891   63.9480   44.3842 C   0  0  0  0  0  0  0  0  0  0  0  0
  110.0679   67.1945   34.6981 C   0  0  0  0  0  0  0  0  0  0  0  0
  109.8897   68.9836   32.5650 C   0  0  0  0  0  0  0  0  0  0  0  0
  105.7162   64.8852   44.7263 C   0  0  0  0  0  0  0  0  0  0  0  0
  104.2807   63.1472   45.7333 C   0  0  0  0  0  0  0  0  0  0  0  0
  109.0799   66.2282   42.5697 C   0  0  0  0  0  0  0  0  0  0  0  0
  109.9081   65.4647   41.8414 C   0  0  0  0  0  0  0  0  0  0  0  0
  111.0703   66.0075   41.1105 C   0  0  0  0  0  0  0  0  0  0  0  0
  105.0617   60.7555   45.6215 C   0  0  0  0  0  0  0  0  0  0  0  0
  106.5779   62.5326   44.8644 C   0  0  0  0  0  0  0  0  0  0  0  0
  110.4179   64.4419   37.9172 C   0  0  0  0  0  0  0  0  0  0  0  0
  112.2608   66.1619   37.7622 C   0  0  0  0  0  0  0  0  0  0  0  0
  110.8470   64.1624   39.3558 C   0  0  0  0  0  0  0  0  0  0  0  0
  112.6339   65.8470   39.2101 C   0  0  0  0  0  0  0  0  0  0  0  0
  105.1158   62.1129   44.9913 C   0  0  2  0  0  0  0  0  0  0  0  0
  111.6005   64.9538   37.0784 C   0  0  0  0  0  0  0  0  0  0  0  0
  111.1496   65.3096   35.6639 C   0  0  0  0  0  0  0  0  0  0  0  0
  105.8096   66.1990   44.4114 N   0  0  0  0  0  0  0  0  0  0  0  0
  104.5935   64.4657   45.4639 N   0  0  0  0  0  0  0  0  0  0  0  0
  111.4669   65.3564   39.9461 N   0  0  0  0  0  0  0  0  0  0  0  0
  105.1560   59.7216   44.7203 N   0  0  0  0  0  0  0  0  0  0  0  0
  103.3352   62.8269   46.4542 O   0  0  0  0  0  0  0  0  0  0  0  0
  111.6178   67.0093   41.5744 O   0  0  0  0  0  0  0  0  0  0  0  0
  104.9594   60.6034   46.8364 O   0  0  0  0  0  0  0  0  0  0  0  0
  110.1556   66.3139   35.7481 O   0  0  0  0  0  0  0  0  0  0  0  0
  109.8041   69.8426   31.5408 F   0  0  0  0  0  0  0  0  0  0  0  0
  110.7681   65.7550   33.2396 H   0  0  0  0  0  0  0  0  0  0  0  0
  109.3489   68.8232   35.9313 H   0  0  0  0  0  0  0  0  0  0  0  0
  110.6087   67.3549   31.3318 H   0  0  0  0  0  0  0  0  0  0  0  0
  109.1895   70.4231   34.0237 H   0  0  0  0  0  0  0  0  0  0  0  0
  108.6003   63.6838   43.3976 H   0  0  0  0  0  0  0  0  0  0  0  0
  106.9853   67.6490   43.4383 H   0  0  0  0  0  0  0  0  0  0  0  0
  109.2865   67.3080   42.6075 H   0  0  0  0  0  0  0  0  0  0  0  0
  109.7122   64.3837   41.7862 H   0  0  0  0  0  0  0  0  0  0  0  0
  107.0821   61.8684   44.1470 H   0  0  0  0  0  0  0  0  0  0  0  0
  107.0514   62.4596   45.8546 H   0  0  0  0  0  0  0  0  0  0  0  0
  110.0347   63.5131   37.4693 H   0  0  0  0  0  0  0  0  0  0  0  0
  109.6360   65.2156   37.9290 H   0  0  0  0  0  0  0  0  0  0  0  0
  111.5586   67.0085   37.7495 H   0  0  0  0  0  0  0  0  0  0  0  0
  113.1812   66.4103   37.2134 H   0  0  0  0  0  0  0  0  0  0  0  0
  109.9645   63.8812   39.9492 H   0  0  0  0  0  0  0  0  0  0  0  0
  111.5799   63.3422   39.3567 H   0  0  0  0  0  0  0  0  0  0  0  0
  113.4193   65.0769   39.2221 H   0  0  0  0  0  0  0  0  0  0  0  0
  112.9969   66.7669   39.6917 H   0  0  0  0  0  0  0  0  0  0  0  0
  104.6631   62.0548   43.9905 H   0  0  0  0  0  0  0  0  0  0  0  0
  112.3459   64.1484   37.0035 H   0  0  0  0  0  0  0  0  0  0  0  0
  112.0066   65.6835   35.0844 H   0  0  0  0  0  0  0  0  0  0  0  0
  110.7434   64.4186   35.1627 H   0  0  0  0  0  0  0  0  0  0  0  0
  103.9609   65.1923   45.8283 H   0  0  0  0  0  0  0  0  0  0  0  0
  105.1291   58.7464   45.0507 H   0  0  0  0  0  0  0  0  0  0  0  0
  105.2535   59.9222   43.7147 H   0  0  0  0  0  0  0  0  0  0  0  0
  1  3  2  0
  1  9  1  0
  2  4  1  0
  2  9  2  0
  3 10  1  0
  4 10  2  0
  5  7  2  0
  5  8  1  0
  6  7  1  0
  6 25  2  0
  7 13  1  0
  8 11  2  0
  8 17  1  0
  9 32  1  0
 10 33  1  0
 11 25  1  0
 11 26  1  0
 12 22  1  0
 12 26  1  0
 12 29  2  0
 13 14  2  0
 14 15  1  0
 15 27  1  0
 15 30  2  0
 16 22  1  0
 16 28  1  0
 16 31  2  0
 17 22  1  0
 18 20  1  0
 18 23  1  0
 19 21  1  0
 19 23  1  0
 20 27  1  0
 21 27  1  0
 23 24  1  0
 24 32  1  0
  1 34  1  0
  2 35  1  0
  3 36  1  0
  4 37  1  0
  5 38  1  0
  6 39  1  0
 13 40  1  0
 14 41  1  0
 17 42  1  0
 17 43  1  0
 18 44  1  0
 18 45  1  0
 19 46  1  0
 19 47  1  0
 20 48  1  0
 20 49  1  0
 21 50  1  0
 21 51  1  0
 22 52  1  6
 23 53  1  0
 24 54  1  0
 24 55  1  0
 26 56  1  0
 28 57  1  0
 28 58  1  0
M  END
>  <Name>  (88) 
CHEMBL3676420

>  <Comment>  (88) 
 Schrodinger Suite 2021-4.

>  <s_m_entry_id>  (88) 
1431

>  <s_m_Source_Path>  (88) 
C:\Users\vinicius\Desktop

>  <s_m_Source_File>  (88) 
Ligands_Saureus_failomega.smi

>  <i_m_Source_File_Index>  (88) 
4

>  <r_lp_tautomer_probability>  (88) 
1

>  <r_epik_Ionization_Penalty>  (88) 
0.006

>  <r_epik_State_Penalty>  (88) 
0

>  <i_epik_Tot_Q>  (88) 
0

>  <i_f3d_flags>  (88) 
0

>  <s_m_job_name>  (88) 
Saureus_fail

>  <class_value>  (88) 
1

>  <FRED Chemgauss4 score>  (88) 
-14.305296

>  <Set>  (88) 
training

>  <HBA count>  (88) 
5

>  <HBD count>  (88) 
2

>  <ExactMolWt>  (88) 
452.1859835000007

>  <NumRotatableBounds>  (88) 
6

>  <FractionCsp3>  (88) 
0.3333333333333333

>  <TPSA>  (88) 
114.61999999999999

>  <LogP_WildmanCrippen>  (88) 
2.1475999999999997

>  <General_Cluster>  (88) 
1

>  <Biological_Cluster>  (88) 
1

>  <Physicochemical_Cluster>  (88) 
4

>  <Structural_Cluster>  (88) 
2

$$$$
CHEMBL303748
     RDKit          3D

 30 32  0  0  0  0  0  0  0  0999 V2000
  110.8051   71.1389   33.9439 C   0  0  0  0  0  0  0  0  0  0  0  0
  111.4229   69.9954   31.9074 C   0  0  0  0  0  0  0  0  0  0  0  0
  110.1038   70.0094   34.3655 C   0  0  0  0  0  0  0  0  0  0  0  0
  110.7216   68.8657   32.3290 C   0  0  0  0  0  0  0  0  0  0  0  0
  112.1333   64.6844   38.5045 C   0  0  0  0  0  0  0  0  0  0  0  0
  112.3837   64.7270   39.8584 C   0  0  0  0  0  0  0  0  0  0  0  0
  111.0162   66.6301   39.1116 C   0  0  0  0  0  0  0  0  0  0  0  0
  111.3413   65.7870   38.0718 C   0  0  0  0  0  0  0  0  0  0  0  0
  111.4647   71.1320   32.7148 C   0  0  0  0  0  0  0  0  0  0  0  0
  110.0620   68.8727   33.5581 C   0  0  0  0  0  0  0  0  0  0  0  0
  110.9443   65.9664   36.6935 C   0  0  0  0  0  0  0  0  0  0  0  0
  110.0502   66.8356   35.0428 C   0  0  0  0  0  0  0  0  0  0  0  0
  112.2147   72.3392   32.2634 C   0  0  0  0  0  0  0  0  0  0  0  0
  109.3133   67.6647   34.0103 C   0  0  0  0  0  0  0  0  0  0  0  0
  110.1847   67.0397   36.3289 N   0  0  0  0  0  0  0  0  0  0  0  0
  111.2765   65.1279   35.7074 N   0  0  0  0  0  0  0  0  0  0  0  0
  110.6715   65.7155   34.5892 O   0  0  0  0  0  0  0  0  0  0  0  0
  111.6652   66.0919   40.6021 S   0  0  0  0  0  0  0  0  0  0  0  0
  110.8381   72.0352   34.5807 H   0  0  0  0  0  0  0  0  0  0  0  0
  111.9430   69.9899   30.9381 H   0  0  0  0  0  0  0  0  0  0  0  0
  109.5837   70.0150   35.3347 H   0  0  0  0  0  0  0  0  0  0  0  0
  110.6887   67.9693   31.6922 H   0  0  0  0  0  0  0  0  0  0  0  0
  112.5015   63.8923   37.8360 H   0  0  0  0  0  0  0  0  0  0  0  0
  112.9755   63.9731   40.3982 H   0  0  0  0  0  0  0  0  0  0  0  0
  110.4110   67.5416   38.9979 H   0  0  0  0  0  0  0  0  0  0  0  0
  112.5648   72.9027   33.1408 H   0  0  0  0  0  0  0  0  0  0  0  0
  113.0792   72.0287   31.6582 H   0  0  0  0  0  0  0  0  0  0  0  0
  111.5534   72.9767   31.6582 H   0  0  0  0  0  0  0  0  0  0  0  0
  108.3584   67.9925   34.4469 H   0  0  0  0  0  0  0  0  0  0  0  0
  109.1762   67.0248   33.1261 H   0  0  0  0  0  0  0  0  0  0  0  0
  1  3  2  0
  1  9  1  0
  2  4  1  0
  2  9  2  0
  3 10  1  0
  4 10  2  0
  5  6  2  0
  5  8  1  0
  6 18  1  0
  7  8  2  0
  7 18  1  0
  8 11  1  0
  9 13  1  0
 10 14  1  0
 11 15  1  0
 11 16  2  0
 12 14  1  0
 12 15  2  0
 12 17  1  0
 16 17  1  0
  1 19  1  0
  2 20  1  0
  3 21  1  0
  4 22  1  0
  5 23  1  0
  6 24  1  0
  7 25  1  0
 13 26  1  0
 13 27  1  0
 13 28  1  0
 14 29  1  0
 14 30  1  0
M  END
>  <Name>  (89) 
CHEMBL303748

>  <Comment>  (89) 
 Schrodinger Suite 2021-4.

>  <s_m_entry_id>  (89) 
1320

>  <class_value>  (89) 
0

>  <s_m_Source_Path>  (89) 
C:\Users\vinicius\Desktop

>  <s_m_Source_File>  (89) 
Ligands_Saureus_o.sdf

>  <i_m_Source_File_Index>  (89) 
190

>  <r_lp_tautomer_probability>  (89) 
1

>  <r_epik_Ionization_Penalty>  (89) 
0

>  <r_epik_State_Penalty>  (89) 
0

>  <i_epik_Tot_Q>  (89) 
0

>  <i_f3d_flags>  (89) 
0

>  <s_m_job_name>  (89) 
Saureus_o

>  <FRED Chemgauss4 score>  (89) 
-12.392383

>  <Set>  (89) 
training

>  <HBA count>  (89) 
4

>  <HBD count>  (89) 
0

>  <ExactMolWt>  (89) 
256.067034004

>  <NumRotatableBounds>  (89) 
4

>  <FractionCsp3>  (89) 
0.14285714285714285

>  <TPSA>  (89) 
38.92

>  <LogP_WildmanCrippen>  (89) 
3.697320000000003

>  <General_Cluster>  (89) 
4

>  <Biological_Cluster>  (89) 
2

>  <Physicochemical_Cluster>  (89) 
3

>  <Structural_Cluster>  (89) 
1

$$$$
CHEMBL3623403
     RDKit          3D

 38 39  0  0  0  0  0  0  0  0999 V2000
  110.9758   70.9458   34.5266 C   0  0  0  0  0  0  0  0  0  0  0  0
  111.8880   71.8496   33.9820 C   0  0  0  0  0  0  0  0  0  0  0  0
  111.4334   70.9785   31.7748 C   0  0  0  0  0  0  0  0  0  0  0  0
  110.5212   70.0746   32.3194 C   0  0  0  0  0  0  0  0  0  0  0  0
  110.2924   70.0583   33.6953 C   0  0  0  0  0  0  0  0  0  0  0  0
  112.1168   71.8660   32.6061 C   0  0  0  0  0  0  0  0  0  0  0  0
  110.9139   66.0686   35.7879 C   0  0  0  0  0  0  0  0  0  0  0  0
  109.9204   68.5689   36.4824 C   0  0  0  0  0  0  0  0  0  0  0  0
  109.8905   68.2906   35.1736 C   0  0  0  0  0  0  0  0  0  0  0  0
  110.8756   66.4942   37.0545 C   0  0  0  0  0  0  0  0  0  0  0  0
  110.4050   66.9723   34.7295 C   0  0  0  0  0  0  0  0  0  0  0  0
  111.3470   65.6843   38.1413 C   0  0  0  0  0  0  0  0  0  0  0  0
  111.3234   66.0795   39.4219 C   0  0  0  0  0  0  0  0  0  0  0  0
  109.8002   69.1304   31.4151 C   0  0  0  0  0  0  0  0  0  0  0  0
  110.0638   66.1831   42.1108 C   0  0  0  0  0  0  0  0  0  0  0  0
  111.8095   65.2321   40.5624 C   0  0  0  0  0  0  0  0  0  0  0  0
  110.6770   64.9143   41.5392 C   0  0  0  0  0  0  0  0  0  0  0  0
  110.4126   66.6408   33.5499 O   0  0  0  0  0  0  0  0  0  0  0  0
  110.3940   67.7220   37.4564 O   0  0  0  0  0  0  0  0  0  0  0  0
  109.4012   69.1780   34.2456 O   0  0  0  0  0  0  0  0  0  0  0  0
  113.2421   72.9807   31.9336 Cl  0  0  0  0  0  0  0  0  0  0  0  0
  110.7953   70.9329   35.6116 H   0  0  0  0  0  0  0  0  0  0  0  0
  112.4270   72.5494   34.6375 H   0  0  0  0  0  0  0  0  0  0  0  0
  111.6138   70.9914   30.6898 H   0  0  0  0  0  0  0  0  0  0  0  0
  111.3125   65.0743   35.5380 H   0  0  0  0  0  0  0  0  0  0  0  0
  109.5372   69.5489   36.8029 H   0  0  0  0  0  0  0  0  0  0  0  0
  111.7489   64.6865   37.9113 H   0  0  0  0  0  0  0  0  0  0  0  0
  110.9261   67.0796   39.6500 H   0  0  0  0  0  0  0  0  0  0  0  0
  109.2419   68.3993   32.0182 H   0  0  0  0  0  0  0  0  0  0  0  0
  109.0999   69.6932   30.7804 H   0  0  0  0  0  0  0  0  0  0  0  0
  110.5276   68.6031   30.7804 H   0  0  0  0  0  0  0  0  0  0  0  0
  110.0856   66.1380   43.2097 H   0  0  0  0  0  0  0  0  0  0  0  0
  110.6398   67.0553   41.7681 H   0  0  0  0  0  0  0  0  0  0  0  0
  109.0225   66.2737   41.7681 H   0  0  0  0  0  0  0  0  0  0  0  0
  112.2130   64.2901   40.1626 H   0  0  0  0  0  0  0  0  0  0  0  0
  112.5883   65.7902   41.1028 H   0  0  0  0  0  0  0  0  0  0  0  0
  111.0764   64.3067   42.3646 H   0  0  0  0  0  0  0  0  0  0  0  0
  109.8938   64.3667   40.9944 H   0  0  0  0  0  0  0  0  0  0  0  0
  1  2  2  0
  1  5  1  0
  2  6  1  0
  3  4  1  0
  3  6  2  0
  4  5  2  0
  4 14  1  0
  5 20  1  0
  6 21  1  0
  7 10  2  0
  7 11  1  0
  8  9  2  0
  8 19  1  0
  9 11  1  0
  9 20  1  0
 10 12  1  0
 10 19  1  0
 11 18  2  0
 12 13  2  0
 13 16  1  0
 15 17  1  0
 16 17  1  0
  1 22  1  0
  2 23  1  0
  3 24  1  0
  7 25  1  0
  8 26  1  0
 12 27  1  0
 13 28  1  0
 14 29  1  0
 14 30  1  0
 14 31  1  0
 15 32  1  0
 15 33  1  0
 15 34  1  0
 16 35  1  0
 16 36  1  0
 17 37  1  0
 17 38  1  0
M  END
>  <Name>  (90) 
CHEMBL3623403

>  <Comment>  (90) 
 Schrodinger Suite 2021-4.

>  <s_m_entry_id>  (90) 
1257

>  <class_value>  (90) 
0

>  <s_m_Source_Path>  (90) 
C:\Users\vinicius\Desktop

>  <s_m_Source_File>  (90) 
Ligands_Saureus_o.sdf

>  <i_m_Source_File_Index>  (90) 
149

>  <r_lp_tautomer_probability>  (90) 
1

>  <r_epik_Ionization_Penalty>  (90) 
0

>  <r_epik_State_Penalty>  (90) 
0

>  <i_epik_Tot_Q>  (90) 
0

>  <i_f3d_flags>  (90) 
0

>  <s_m_job_name>  (90) 
Saureus_o

>  <FRED Chemgauss4 score>  (90) 
-10.676857

>  <Set>  (90) 
training

>  <HBA count>  (90) 
3

>  <HBD count>  (90) 
0

>  <ExactMolWt>  (90) 
304.0866220840005

>  <NumRotatableBounds>  (90) 
7

>  <FractionCsp3>  (90) 
0.23529411764705882

>  <TPSA>  (90) 
39.44

>  <LogP_WildmanCrippen>  (90) 
5.207220000000003

>  <General_Cluster>  (90) 
4

>  <Biological_Cluster>  (90) 
2

>  <Physicochemical_Cluster>  (90) 
1

>  <Structural_Cluster>  (90) 
1

$$$$
CHEMBL3623422
     RDKit          3D

 43 45  0  0  0  0  0  0  0  0999 V2000
  105.7462   62.9640   44.9682 C   0  0  0  0  0  0  0  0  0  0  0  0
  106.0878   64.3159   44.9341 C   0  0  0  0  0  0  0  0  0  0  0  0
  106.2318   62.0969   43.9894 C   0  0  0  0  0  0  0  0  0  0  0  0
  106.9150   64.8008   43.9211 C   0  0  0  0  0  0  0  0  0  0  0  0
  107.0590   62.5819   42.9764 C   0  0  0  0  0  0  0  0  0  0  0  0
  111.3154   69.2875   36.5964 C   0  0  0  0  0  0  0  0  0  0  0  0
  110.7328   69.9990   35.5476 C   0  0  0  0  0  0  0  0  0  0  0  0
  110.2113   67.9222   34.4285 C   0  0  0  0  0  0  0  0  0  0  0  0
  110.7940   67.2108   35.4774 C   0  0  0  0  0  0  0  0  0  0  0  0
  107.4006   63.9339   42.9422 C   0  0  0  0  0  0  0  0  0  0  0  0
  111.3460   67.8934   36.5613 C   0  0  0  0  0  0  0  0  0  0  0  0
  110.1808   69.3163   34.4637 C   0  0  0  0  0  0  0  0  0  0  0  0
  110.0347   65.1193   40.1462 C   0  0  0  0  0  0  0  0  0  0  0  0
  110.4434   67.7651   39.3806 C   0  0  0  0  0  0  0  0  0  0  0  0
  111.1056   66.8602   38.6460 C   0  0  0  0  0  0  0  0  0  0  0  0
  109.4244   66.1234   40.8067 C   0  0  0  0  0  0  0  0  0  0  0  0
  110.9322   65.4275   39.0006 C   0  0  0  0  0  0  0  0  0  0  0  0
  110.8199   65.7189   35.4223 C   0  0  0  0  0  0  0  0  0  0  0  0
  108.9376   68.5585   41.1720 C   0  0  0  0  0  0  0  0  0  0  0  0
  108.5204   65.7908   41.9655 C   0  0  0  0  0  0  0  0  0  0  0  0
  109.6051   67.4734   40.4506 N   0  0  0  0  0  0  0  0  0  0  0  0
  111.4998   64.5345   38.3818 O   0  0  0  0  0  0  0  0  0  0  0  0
  111.9216   67.2106   37.5982 O   0  0  0  0  0  0  0  0  0  0  0  0
  108.2144   64.4115   41.9429 O   0  0  0  0  0  0  0  0  0  0  0  0
  109.4619   70.1935   33.1695 Cl  0  0  0  0  0  0  0  0  0  0  0  0
  105.0938   62.5816   45.7670 H   0  0  0  0  0  0  0  0  0  0  0  0
  105.7049   64.9996   45.7060 H   0  0  0  0  0  0  0  0  0  0  0  0
  105.9624   61.0307   44.0164 H   0  0  0  0  0  0  0  0  0  0  0  0
  107.1844   65.8670   43.8942 H   0  0  0  0  0  0  0  0  0  0  0  0
  107.4420   61.8982   42.2045 H   0  0  0  0  0  0  0  0  0  0  0  0
  111.7507   69.8258   37.4512 H   0  0  0  0  0  0  0  0  0  0  0  0
  110.7087   71.0984   35.5753 H   0  0  0  0  0  0  0  0  0  0  0  0
  109.7759   67.3839   33.5737 H   0  0  0  0  0  0  0  0  0  0  0  0
  109.8697   64.0760   40.4531 H   0  0  0  0  0  0  0  0  0  0  0  0
  110.5739   68.8246   39.1152 H   0  0  0  0  0  0  0  0  0  0  0  0
  110.8269   65.3143   36.4452 H   0  0  0  0  0  0  0  0  0  0  0  0
  109.9279   65.3561   34.8906 H   0  0  0  0  0  0  0  0  0  0  0  0
  111.7239   65.3873   34.8906 H   0  0  0  0  0  0  0  0  0  0  0  0
  109.0382   68.3950   42.2551 H   0  0  0  0  0  0  0  0  0  0  0  0
  109.4015   69.5185   40.9014 H   0  0  0  0  0  0  0  0  0  0  0  0
  107.8716   68.5773   40.9014 H   0  0  0  0  0  0  0  0  0  0  0  0
  109.0280   66.0384   42.9094 H   0  0  0  0  0  0  0  0  0  0  0  0
  107.5912   66.3741   41.8851 H   0  0  0  0  0  0  0  0  0  0  0  0
  1  2  2  0
  1  3  1  0
  2  4  1  0
  3  5  2  0
  4 10  2  0
  5 10  1  0
  6  7  2  0
  6 11  1  0
  7 12  1  0
  8  9  1  0
  8 12  2  0
  9 11  2  0
  9 18  1  0
 10 24  1  0
 11 23  1  0
 12 25  1  0
 13 16  2  0
 13 17  1  0
 14 15  2  0
 14 21  1  0
 15 17  1  0
 15 23  1  0
 16 20  1  0
 16 21  1  0
 17 22  2  0
 19 21  1  0
 20 24  1  0
  1 26  1  0
  2 27  1  0
  3 28  1  0
  4 29  1  0
  5 30  1  0
  6 31  1  0
  7 32  1  0
  8 33  1  0
 13 34  1  0
 14 35  1  0
 18 36  1  0
 18 37  1  0
 18 38  1  0
 19 39  1  0
 19 40  1  0
 19 41  1  0
 20 42  1  0
 20 43  1  0
M  END
>  <Name>  (91) 
CHEMBL3623422

>  <Comment>  (91) 
 Schrodinger Suite 2021-4.

>  <s_m_entry_id>  (91) 
1115

>  <class_value>  (91) 
1

>  <s_m_Source_Path>  (91) 
C:\Users\vinicius\Desktop

>  <s_m_Source_File>  (91) 
Ligands_Saureus_o.sdf

>  <i_m_Source_File_Index>  (91) 
34

>  <r_lp_tautomer_probability>  (91) 
1

>  <r_epik_Ionization_Penalty>  (91) 
0

>  <r_epik_State_Penalty>  (91) 
0

>  <i_epik_Tot_Q>  (91) 
0

>  <i_f3d_flags>  (91) 
0

>  <s_m_job_name>  (91) 
Saureus_o

>  <FRED Chemgauss4 score>  (91) 
-11.697075

>  <Set>  (91) 
training

>  <HBA count>  (91) 
4

>  <HBD count>  (91) 
0

>  <ExactMolWt>  (91) 
355.09752111600045

>  <NumRotatableBounds>  (91) 
7

>  <FractionCsp3>  (91) 
0.15

>  <TPSA>  (91) 
40.46

>  <LogP_WildmanCrippen>  (91) 
4.718420000000003

>  <General_Cluster>  (91) 
1

>  <Biological_Cluster>  (91) 
1

>  <Physicochemical_Cluster>  (91) 
1

>  <Structural_Cluster>  (91) 
5

$$$$
CHEMBL421119
     RDKit          3D

 53 57  0  0  0  0  0  0  0  0999 V2000
  111.6992   65.4504   33.0454 C   0  0  0  0  0  0  0  0  0  0  0  0
  111.0568   66.6306   32.6772 C   0  0  0  0  0  0  0  0  0  0  0  0
  111.7825   65.0694   34.3893 C   0  0  0  0  0  0  0  0  0  0  0  0
  109.7012   67.9265   41.9294 C   0  0  0  0  0  0  0  0  0  0  0  0
  107.6011   66.7981   41.5378 C   0  0  0  0  0  0  0  0  0  0  0  0
  111.2411   70.6279   36.1984 C   0  0  0  0  0  0  0  0  0  0  0  0
  109.8526   70.5031   34.2252 C   0  0  0  0  0  0  0  0  0  0  0  0
  110.4781   67.4657   33.6369 C   0  0  0  0  0  0  0  0  0  0  0  0
  111.9842   71.6517   35.6108 C   0  0  0  0  0  0  0  0  0  0  0  0
  110.5956   71.5269   33.6376 C   0  0  0  0  0  0  0  0  0  0  0  0
  109.0317   68.9293   42.6305 C   0  0  0  0  0  0  0  0  0  0  0  0
  106.9316   67.8009   42.2391 C   0  0  0  0  0  0  0  0  0  0  0  0
  111.2076   65.8949   35.3764 C   0  0  0  0  0  0  0  0  0  0  0  0
  108.9859   66.8609   41.3830 C   0  0  0  0  0  0  0  0  0  0  0  0
  111.1025   65.8285   36.7923 C   0  0  0  0  0  0  0  0  0  0  0  0
  110.1753   70.0535   35.5056 C   0  0  0  0  0  0  0  0  0  0  0  0
  110.5676   67.0739   34.9776 C   0  0  0  0  0  0  0  0  0  0  0  0
  111.6614   72.1012   34.3304 C   0  0  0  0  0  0  0  0  0  0  0  0
  107.6469   68.8665   42.7854 C   0  0  0  0  0  0  0  0  0  0  0  0
  110.4101   66.9444   37.2126 C   0  0  0  0  0  0  0  0  0  0  0  0
  109.6918   65.8032   40.6437 C   0  0  0  0  0  0  0  0  0  0  0  0
  111.5828   64.8066   37.7613 C   0  0  0  0  0  0  0  0  0  0  0  0
  110.0684   67.3020   38.6140 C   0  0  0  0  0  0  0  0  0  0  0  0
  111.6502   65.4162   39.1721 C   0  0  0  0  0  0  0  0  0  0  0  0
  109.3734   68.9487   36.1385 C   0  0  0  0  0  0  0  0  0  0  0  0
  110.0936   67.6929   36.1153 N   0  0  0  0  0  0  0  0  0  0  0  0
  110.4193   66.1656   39.5039 N   0  0  0  0  0  0  0  0  0  0  0  0
  112.4113   73.1376   33.7367 N   0  0  0  0  0  0  0  0  0  0  0  0
  109.5922   64.6630   41.0949 O   0  0  0  0  0  0  0  0  0  0  0  0
  106.9933   69.8450   43.4694 O   0  0  0  0  0  0  0  0  0  0  0  0
  112.1463   64.8104   32.2704 H   0  0  0  0  0  0  0  0  0  0  0  0
  111.0043   66.9095   31.6144 H   0  0  0  0  0  0  0  0  0  0  0  0
  112.2911   64.1359   34.6722 H   0  0  0  0  0  0  0  0  0  0  0  0
  110.7933   67.9760   41.8074 H   0  0  0  0  0  0  0  0  0  0  0  0
  107.0370   65.9578   41.1069 H   0  0  0  0  0  0  0  0  0  0  0  0
  111.4956   70.2735   37.2082 H   0  0  0  0  0  0  0  0  0  0  0  0
  109.0121   70.0502   33.6789 H   0  0  0  0  0  0  0  0  0  0  0  0
  109.9702   68.3979   33.3488 H   0  0  0  0  0  0  0  0  0  0  0  0
  112.8247   72.1046   36.1571 H   0  0  0  0  0  0  0  0  0  0  0  0
  110.3411   71.8814   32.6279 H   0  0  0  0  0  0  0  0  0  0  0  0
  109.5958   69.7697   43.0613 H   0  0  0  0  0  0  0  0  0  0  0  0
  105.8395   67.7514   42.3613 H   0  0  0  0  0  0  0  0  0  0  0  0
  110.8892   63.9529   37.7653 H   0  0  0  0  0  0  0  0  0  0  0  0
  112.5863   64.4680   37.4640 H   0  0  0  0  0  0  0  0  0  0  0  0
  110.6358   68.1949   38.9153 H   0  0  0  0  0  0  0  0  0  0  0  0
  108.9919   67.5146   38.6907 H   0  0  0  0  0  0  0  0  0  0  0  0
  111.7826   64.6062   39.9044 H   0  0  0  0  0  0  0  0  0  0  0  0
  112.4971   66.1175   39.2023 H   0  0  0  0  0  0  0  0  0  0  0  0
  109.1560   69.2173   37.1828 H   0  0  0  0  0  0  0  0  0  0  0  0
  108.4427   68.8246   35.5654 H   0  0  0  0  0  0  0  0  0  0  0  0
  112.1728   73.4694   32.7912 H   0  0  0  0  0  0  0  0  0  0  0  0
  113.1975   73.5628   34.2486 H   0  0  0  0  0  0  0  0  0  0  0  0
  106.0104   69.8002   43.5792 H   0  0  0  0  0  0  0  0  0  0  0  0
  1  2  2  0
  1  3  1  0
  2  8  1  0
  3 13  2  0
  4 11  2  0
  4 14  1  0
  5 12  1  0
  5 14  2  0
  6  9  2  0
  6 16  1  0
  7 10  1  0
  7 16  2  0
  8 17  2  0
  9 18  1  0
 10 18  2  0
 11 19  1  0
 12 19  2  0
 13 15  1  0
 13 17  1  0
 14 21  1  0
 15 20  2  0
 15 22  1  0
 16 25  1  0
 17 26  1  0
 18 28  1  0
 19 30  1  0
 20 23  1  0
 20 26  1  0
 21 27  1  0
 21 29  2  0
 22 24  1  0
 23 27  1  0
 24 27  1  0
 25 26  1  0
  1 31  1  0
  2 32  1  0
  3 33  1  0
  4 34  1  0
  5 35  1  0
  6 36  1  0
  7 37  1  0
  8 38  1  0
  9 39  1  0
 10 40  1  0
 11 41  1  0
 12 42  1  0
 22 43  1  0
 22 44  1  0
 23 45  1  0
 23 46  1  0
 24 47  1  0
 24 48  1  0
 25 49  1  0
 25 50  1  0
 28 51  1  0
 28 52  1  0
 30 53  1  0
M  END
>  <Name>  (92) 
CHEMBL421119

>  <Comment>  (92) 
 Schrodinger Suite 2021-4.

>  <s_m_entry_id>  (92) 
1179

>  <class_value>  (92) 
1

>  <s_m_Source_Path>  (92) 
C:\Users\vinicius\Desktop

>  <s_m_Source_File>  (92) 
Ligands_Saureus_o.sdf

>  <i_m_Source_File_Index>  (92) 
84

>  <r_lp_tautomer_probability>  (92) 
0.999999999997365

>  <r_epik_Ionization_Penalty>  (92) 
0.0166

>  <r_epik_State_Penalty>  (92) 
0.0114

>  <i_epik_Tot_Q>  (92) 
0

>  <i_f3d_flags>  (92) 
0

>  <s_m_job_name>  (92) 
Saureus_o

>  <FRED Chemgauss4 score>  (92) 
-12.214550

>  <Set>  (92) 
training

>  <HBA count>  (92) 
4

>  <HBD count>  (92) 
2

>  <ExactMolWt>  (92) 
397.17902697600067

>  <NumRotatableBounds>  (92) 
5

>  <FractionCsp3>  (92) 
0.16

>  <TPSA>  (92) 
71.49

>  <LogP_WildmanCrippen>  (92) 
4.175900000000003

>  <General_Cluster>  (92) 
3

>  <Biological_Cluster>  (92) 
1

>  <Physicochemical_Cluster>  (92) 
1

>  <Structural_Cluster>  (92) 
4

$$$$
Zheng_4
     RDKit          3D

 58 62  0  0  1  0  0  0  0  0999 V2000
  110.3738   72.2433   33.0938 C   0  0  0  0  0  0  0  0  0  0  0  0
  111.3318   72.7363   34.0010 C   0  0  0  0  0  0  0  0  0  0  0  0
  109.8818   70.9404   33.2016 C   0  0  0  0  0  0  0  0  0  0  0  0
  111.8150   71.9416   35.0445 C   0  0  0  0  0  0  0  0  0  0  0  0
  110.5531   67.6318   41.3764 C   0  0  0  0  0  0  0  0  0  0  0  0
  109.4623   66.0226   42.2432 C   0  0  0  0  0  0  0  0  0  0  0  0
  110.3561   70.1629   34.2384 C   0  0  0  0  0  0  0  0  0  0  0  0
  111.3153   70.6587   35.1583 C   0  0  0  0  0  0  0  0  0  0  0  0
  110.3783   66.7186   40.3635 C   0  0  0  0  0  0  0  0  0  0  0  0
  108.8802   67.9615   34.3956 C   0  0  0  0  0  0  0  0  0  0  0  0
  108.7492   66.8091   35.0820 C   0  0  0  0  0  0  0  0  0  0  0  0
  110.3937   67.5298   38.0490 C   0  0  0  0  0  0  0  0  0  0  0  0
  109.8252   66.3720   36.0660 C   0  0  0  0  0  0  0  0  0  0  0  0
  109.5613   68.7403   38.3248 C   0  0  0  0  0  0  0  0  0  0  0  0
  111.2179   65.4088   33.7787 C   0  0  0  0  0  0  0  0  0  0  0  0
  110.7455   66.6406   38.9789 C   0  0  0  0  0  0  0  0  0  0  0  0
  110.7017   66.5927   33.4259 C   0  0  0  0  0  0  0  0  0  0  0  0
  110.1431   68.7163   34.5777 C   0  0  2  0  0  0  0  0  0  0  0  0
  110.4181   68.7958   36.1188 C   0  0  2  0  0  0  0  0  0  0  0  0
  111.4888   68.7379   32.4630 C   0  0  0  0  0  0  0  0  0  0  0  0
  112.5265   67.9660   34.6010 C   0  0  0  0  0  0  0  0  0  0  0  0
  108.4494   70.3869   36.7458 C   0  0  0  0  0  0  0  0  0  0  0  0
  113.5783   70.2183   37.2602 C   0  0  0  0  0  0  0  0  0  0  0  0
  111.2484   67.9621   33.7590 C   0  0  0  0  0  0  0  0  0  0  0  0
  109.9809   67.1925   42.5440 N   0  0  0  0  0  0  0  0  0  0  0  0
  109.6783   65.6930   40.9340 N   0  0  0  0  0  0  0  0  0  0  0  0
  111.6059   69.6844   36.1642 N   0  0  0  0  0  0  0  0  0  0  0  0
  110.5624   67.4327   36.6690 N   0  0  0  0  0  0  0  0  0  0  0  0
  109.4214   69.3570   37.0676 N   0  0  0  0  0  0  0  0  0  0  0  0
  109.9080   65.1861   36.3831 O   0  0  0  0  0  0  0  0  0  0  0  0
  109.0833   69.0505   39.4011 O   0  0  0  0  0  0  0  0  0  0  0  0
  107.6671   65.9793   34.8888 O   0  0  0  0  0  0  0  0  0  0  0  0
  112.1527   70.0245   37.3854 O   0  0  0  0  0  0  0  0  0  0  0  0
  110.0070   72.8950   32.2871 H   0  0  0  0  0  0  0  0  0  0  0  0
  111.7061   73.7643   33.8864 H   0  0  0  0  0  0  0  0  0  0  0  0
  109.1435   70.5486   32.4864 H   0  0  0  0  0  0  0  0  0  0  0  0
  112.5668   72.3243   35.7504 H   0  0  0  0  0  0  0  0  0  0  0  0
  111.0825   68.5896   41.2654 H   0  0  0  0  0  0  0  0  0  0  0  0
  108.9203   65.3861   42.9581 H   0  0  0  0  0  0  0  0  0  0  0  0
  108.0846   68.3262   33.7292 H   0  0  0  0  0  0  0  0  0  0  0  0
  110.7198   64.4778   33.4703 H   0  0  0  0  0  0  0  0  0  0  0  0
  112.1401   65.3672   34.3769 H   0  0  0  0  0  0  0  0  0  0  0  0
  111.3613   65.7862   38.6613 H   0  0  0  0  0  0  0  0  0  0  0  0
  109.7787   66.5660   32.8282 H   0  0  0  0  0  0  0  0  0  0  0  0
  111.8065   69.7633   32.7030 H   0  0  0  0  0  0  0  0  0  0  0  0
  112.2743   68.2383   31.8769 H   0  0  0  0  0  0  0  0  0  0  0  0
  110.5585   68.7700   31.8769 H   0  0  0  0  0  0  0  0  0  0  0  0
  112.2622   67.9652   35.6688 H   0  0  0  0  0  0  0  0  0  0  0  0
  113.1207   67.0697   34.3697 H   0  0  0  0  0  0  0  0  0  0  0  0
  113.1152   68.8659   34.3697 H   0  0  0  0  0  0  0  0  0  0  0  0
  108.0463   70.8141   37.6759 H   0  0  0  0  0  0  0  0  0  0  0  0
  108.9360   71.1798   36.1589 H   0  0  0  0  0  0  0  0  0  0  0  0
  107.6297   69.9469   36.1589 H   0  0  0  0  0  0  0  0  0  0  0  0
  114.0293   70.2796   38.2616 H   0  0  0  0  0  0  0  0  0  0  0  0
  114.0167   69.3715   36.7118 H   0  0  0  0  0  0  0  0  0  0  0  0
  113.7747   71.1514   36.7118 H   0  0  0  0  0  0  0  0  0  0  0  0
  109.3700   64.8299   40.4639 H   0  0  0  0  0  0  0  0  0  0  0  0
  107.5908   65.1373   35.4039 H   0  0  0  0  0  0  0  0  0  0  0  0
  1  2  2  0
  1  3  1  0
  2  4  1  0
  3  7  2  0
  4  8  2  0
  5  9  2  0
  5 25  1  0
  6 25  2  0
  6 26  1  0
  7  8  1  0
  7 18  1  0
  8 27  1  0
  9 16  1  0
  9 26  1  0
 10 11  2  0
 10 18  1  0
 11 13  1  0
 11 32  1  0
 12 14  1  0
 12 16  2  0
 12 28  1  0
 13 28  1  0
 13 30  2  0
 14 29  1  0
 14 31  2  0
 15 17  2  3
 17 24  1  0
 18 19  1  0
 18 24  1  6
 19 27  1  6
 19 28  1  0
 19 29  1  0
 20 24  1  0
 21 24  1  0
 22 29  1  0
 23 33  1  0
 27 33  1  0
  1 34  1  0
  2 35  1  0
  3 36  1  0
  4 37  1  0
  5 38  1  0
  6 39  1  0
 10 40  1  0
 15 41  1  0
 15 42  1  0
 16 43  1  0
 17 44  1  0
 20 45  1  0
 20 46  1  0
 20 47  1  0
 21 48  1  0
 21 49  1  0
 21 50  1  0
 22 51  1  0
 22 52  1  0
 22 53  1  0
 23 54  1  0
 23 55  1  0
 23 56  1  0
 26 57  1  0
 32 58  1  0
M  END
>  <Name>  (93) 
Zheng_4

>  <Comment>  (93) 
 Schrodinger Suite 2021-4.

>  <s_m_entry_id>  (93) 
1409

>  <class_value>  (93) 
0

>  <s_m_Source_Path>  (93) 
C:\Users\vinicius\Desktop

>  <s_m_Source_File>  (93) 
Ligands_Saureus_o.sdf

>  <i_m_Source_File_Index>  (93) 
233

>  <r_epik_Ionization_Penalty>  (93) 
0.7741

>  <r_epik_State_Penalty>  (93) 
0.812

>  <i_epik_Tot_Q>  (93) 
0

>  <i_f3d_flags>  (93) 
0

>  <s_m_job_name>  (93) 
Saureus_o

>  <FRED Chemgauss4 score>  (93) 
-8.301025

>  <Set>  (93) 
training

>  <HBA count>  (93) 
6

>  <HBD count>  (93) 
2

>  <ExactMolWt>  (93) 
447.19065428000073

>  <NumRotatableBounds>  (93) 
9

>  <FractionCsp3>  (93) 
0.2916666666666667

>  <TPSA>  (93) 
102.00000000000001

>  <LogP_WildmanCrippen>  (93) 
2.6921

>  <General_Cluster>  (93) 
5

>  <Biological_Cluster>  (93) 
2

>  <Physicochemical_Cluster>  (93) 
4

>  <Structural_Cluster>  (93) 
3

$$$$
CHEMBL111035
     RDKit          3D

 45 47  0  0  0  0  0  0  0  0999 V2000
  112.1537   72.8660   35.2762 C   0  0  0  0  0  0  0  0  0  0  0  0
  111.7679   72.9815   33.9422 C   0  0  0  0  0  0  0  0  0  0  0  0
  111.8958   71.6947   35.9976 C   0  0  0  0  0  0  0  0  0  0  0  0
  109.9174   67.0015   39.6107 C   0  0  0  0  0  0  0  0  0  0  0  0
  111.7281   65.6423   40.4538 C   0  0  0  0  0  0  0  0  0  0  0  0
  111.1139   71.9337   33.2877 C   0  0  0  0  0  0  0  0  0  0  0  0
  109.5301   67.2963   40.9178 C   0  0  0  0  0  0  0  0  0  0  0  0
  111.3408   65.9371   41.7610 C   0  0  0  0  0  0  0  0  0  0  0  0
  110.8255   69.3267   35.7707 C   0  0  0  0  0  0  0  0  0  0  0  0
  111.2377   70.6250   35.3588 C   0  0  0  0  0  0  0  0  0  0  0  0
  111.0164   66.1744   39.3787 C   0  0  0  0  0  0  0  0  0  0  0  0
  110.8627   70.7689   34.0213 C   0  0  0  0  0  0  0  0  0  0  0  0
  110.2418   66.7642   41.9930 C   0  0  0  0  0  0  0  0  0  0  0  0
  110.2193   68.7191   34.6955 C   0  0  0  0  0  0  0  0  0  0  0  0
  111.4255   65.8631   37.9978 C   0  0  0  0  0  0  0  0  0  0  0  0
  110.6321   65.9842   36.9230 C   0  0  0  0  0  0  0  0  0  0  0  0
  111.1542   65.6050   35.5770 C   0  0  0  0  0  0  0  0  0  0  0  0
  109.7068   69.3308   32.3271 C   0  0  0  0  0  0  0  0  0  0  0  0
  111.0583   65.9714   33.1413 C   0  0  0  0  0  0  0  0  0  0  0  0
  109.6066   67.3530   34.5833 C   0  0  0  0  0  0  0  0  0  0  0  0
  110.2467   69.5966   33.6449 N   0  0  0  0  0  0  0  0  0  0  0  0
  109.8503   67.0622   43.3147 N   0  0  0  0  0  0  0  0  0  0  0  0
  110.6209   66.3045   34.4908 N   0  0  0  0  0  0  0  0  0  0  0  0
  111.9883   64.7041   35.4759 O   0  0  0  0  0  0  0  0  0  0  0  0
  112.6670   73.7053   35.7681 H   0  0  0  0  0  0  0  0  0  0  0  0
  111.9814   73.9119   33.3956 H   0  0  0  0  0  0  0  0  0  0  0  0
  112.2031   71.6102   37.0504 H   0  0  0  0  0  0  0  0  0  0  0  0
  109.3562   67.4212   38.7628 H   0  0  0  0  0  0  0  0  0  0  0  0
  112.5948   64.9902   40.2708 H   0  0  0  0  0  0  0  0  0  0  0  0
  110.8080   72.0216   32.2348 H   0  0  0  0  0  0  0  0  0  0  0  0
  108.6634   67.9484   41.1008 H   0  0  0  0  0  0  0  0  0  0  0  0
  111.9020   65.5174   42.6089 H   0  0  0  0  0  0  0  0  0  0  0  0
  110.9663   68.8878   36.7695 H   0  0  0  0  0  0  0  0  0  0  0  0
  112.4536   65.5064   37.8370 H   0  0  0  0  0  0  0  0  0  0  0  0
  109.6042   66.3602   37.0327 H   0  0  0  0  0  0  0  0  0  0  0  0
  108.7238   68.8468   32.4244 H   0  0  0  0  0  0  0  0  0  0  0  0
  109.5966   70.2777   31.7782 H   0  0  0  0  0  0  0  0  0  0  0  0
  110.3900   68.6661   31.7782 H   0  0  0  0  0  0  0  0  0  0  0  0
  111.9325   65.3057   33.1930 H   0  0  0  0  0  0  0  0  0  0  0  0
  110.2422   65.4640   32.6061 H   0  0  0  0  0  0  0  0  0  0  0  0
  111.3305   66.8931   32.6061 H   0  0  0  0  0  0  0  0  0  0  0  0
  108.9849   67.1684   35.4718 H   0  0  0  0  0  0  0  0  0  0  0  0
  109.0039   67.3251   33.6635 H   0  0  0  0  0  0  0  0  0  0  0  0
  110.3759   66.6692   44.1085 H   0  0  0  0  0  0  0  0  0  0  0  0
  109.0387   67.6728   43.4862 H   0  0  0  0  0  0  0  0  0  0  0  0
  1  2  2  0
  1  3  1  0
  2  6  1  0
  3 10  2  0
  4  7  2  0
  4 11  1  0
  5  8  1  0
  5 11  2  0
  6 12  2  0
  7 13  1  0
  8 13  2  0
  9 10  1  0
  9 14  2  0
 10 12  1  0
 11 15  1  0
 12 21  1  0
 13 22  1  0
 14 20  1  0
 14 21  1  0
 15 16  2  0
 16 17  1  0
 17 23  1  0
 17 24  2  0
 18 21  1  0
 19 23  1  0
 20 23  1  0
  1 25  1  0
  2 26  1  0
  3 27  1  0
  4 28  1  0
  5 29  1  0
  6 30  1  0
  7 31  1  0
  8 32  1  0
  9 33  1  0
 15 34  1  0
 16 35  1  0
 18 36  1  0
 18 37  1  0
 18 38  1  0
 19 39  1  0
 19 40  1  0
 19 41  1  0
 20 42  1  0
 20 43  1  0
 22 44  1  0
 22 45  1  0
M  END
>  <Name>  (94) 
CHEMBL111035

>  <Comment>  (94) 
 Schrodinger Suite 2021-4.

>  <s_m_entry_id>  (94) 
1335

>  <class_value>  (94) 
0

>  <s_m_Source_Path>  (94) 
C:\Users\vinicius\Desktop

>  <s_m_Source_File>  (94) 
Ligands_Saureus_o.sdf

>  <i_m_Source_File_Index>  (94) 
198

>  <r_epik_Ionization_Penalty>  (94) 
0.0067

>  <r_epik_State_Penalty>  (94) 
0.0049

>  <i_epik_Tot_Q>  (94) 
0

>  <i_f3d_flags>  (94) 
0

>  <s_m_job_name>  (94) 
Saureus_o

>  <FRED Chemgauss4 score>  (94) 
-16.304955

>  <Set>  (94) 
training

>  <HBA count>  (94) 
3

>  <HBD count>  (94) 
1

>  <ExactMolWt>  (94) 
319.1684622920006

>  <NumRotatableBounds>  (94) 
7

>  <FractionCsp3>  (94) 
0.15

>  <TPSA>  (94) 
51.26

>  <LogP_WildmanCrippen>  (94) 
3.4323000000000015

>  <General_Cluster>  (94) 
2

>  <Biological_Cluster>  (94) 
2

>  <Physicochemical_Cluster>  (94) 
1

>  <Structural_Cluster>  (94) 
3

$$$$
CHEMBL431763
     RDKit          3D

 32 34  0  0  0  0  0  0  0  0999 V2000
  111.9262   71.4221   32.9119 C   0  0  0  0  0  0  0  0  0  0  0  0
  111.4611   71.4845   34.2254 C   0  0  0  0  0  0  0  0  0  0  0  0
  111.4878   70.4046   32.0644 C   0  0  0  0  0  0  0  0  0  0  0  0
  110.5577   70.5293   34.6915 C   0  0  0  0  0  0  0  0  0  0  0  0
  111.8496   64.9160   38.5108 C   0  0  0  0  0  0  0  0  0  0  0  0
  110.1628   67.7232   36.5479 C   0  0  0  0  0  0  0  0  0  0  0  0
  112.3114   64.8258   39.8055 C   0  0  0  0  0  0  0  0  0  0  0  0
  111.3368   67.0321   39.3240 C   0  0  0  0  0  0  0  0  0  0  0  0
  110.1656   66.2490   34.9098 C   0  0  0  0  0  0  0  0  0  0  0  0
  111.2851   66.1941   38.2318 C   0  0  0  0  0  0  0  0  0  0  0  0
  110.5844   69.4495   32.5305 C   0  0  0  0  0  0  0  0  0  0  0  0
  110.1193   69.5118   33.8441 C   0  0  0  0  0  0  0  0  0  0  0  0
  110.7320   66.5350   36.9415 C   0  0  0  0  0  0  0  0  0  0  0  0
  110.1279   68.3698   31.6049 C   0  0  0  0  0  0  0  0  0  0  0  0
  109.1524   68.5001   34.3658 C   0  0  0  0  0  0  0  0  0  0  0  0
  110.7309   65.6216   35.9171 N   0  0  0  0  0  0  0  0  0  0  0  0
  109.8053   67.5248   35.2440 N   0  0  0  0  0  0  0  0  0  0  0  0
  112.0639   66.2779   40.6786 S   0  0  0  0  0  0  0  0  0  0  0  0
  112.6387   72.1753   32.5444 H   0  0  0  0  0  0  0  0  0  0  0  0
  111.8067   72.2869   34.8937 H   0  0  0  0  0  0  0  0  0  0  0  0
  111.8545   70.3554   31.0285 H   0  0  0  0  0  0  0  0  0  0  0  0
  110.1910   70.5785   35.7274 H   0  0  0  0  0  0  0  0  0  0  0  0
  111.9096   64.0975   37.7784 H   0  0  0  0  0  0  0  0  0  0  0  0
  110.0254   68.6333   37.1502 H   0  0  0  0  0  0  0  0  0  0  0  0
  112.7835   63.9269   40.2286 H   0  0  0  0  0  0  0  0  0  0  0  0
  110.9559   68.0641   39.3258 H   0  0  0  0  0  0  0  0  0  0  0  0
  110.0022   65.8018   33.9182 H   0  0  0  0  0  0  0  0  0  0  0  0
  109.7656   67.5128   32.1916 H   0  0  0  0  0  0  0  0  0  0  0  0
  109.3137   68.7505   30.9707 H   0  0  0  0  0  0  0  0  0  0  0  0
  110.9682   68.0510   30.9707 H   0  0  0  0  0  0  0  0  0  0  0  0
  108.3655   69.0190   34.9329 H   0  0  0  0  0  0  0  0  0  0  0  0
  108.7291   67.9576   33.5076 H   0  0  0  0  0  0  0  0  0  0  0  0
  1  2  2  0
  1  3  1  0
  2  4  1  0
  3 11  2  0
  4 12  2  0
  5  7  2  0
  5 10  1  0
  6 13  2  0
  6 17  1  0
  7 18  1  0
  8 10  2  0
  8 18  1  0
  9 16  2  0
  9 17  1  0
 10 13  1  0
 11 12  1  0
 11 14  1  0
 12 15  1  0
 13 16  1  0
 15 17  1  0
  1 19  1  0
  2 20  1  0
  3 21  1  0
  4 22  1  0
  5 23  1  0
  6 24  1  0
  7 25  1  0
  8 26  1  0
  9 27  1  0
 14 28  1  0
 14 29  1  0
 14 30  1  0
 15 31  1  0
 15 32  1  0
M  END
>  <Name>  (95) 
CHEMBL431763

>  <Comment>  (95) 
 Schrodinger Suite 2021-4.

>  <s_m_entry_id>  (95) 
1298

>  <class_value>  (95) 
0

>  <s_m_Source_Path>  (95) 
C:\Users\vinicius\Desktop

>  <s_m_Source_File>  (95) 
Ligands_Saureus_o.sdf

>  <i_m_Source_File_Index>  (95) 
177

>  <r_lp_tautomer_probability>  (95) 
1

>  <r_epik_Ionization_Penalty>  (95) 
0.316

>  <r_epik_State_Penalty>  (95) 
0.3102

>  <i_epik_Tot_Q>  (95) 
0

>  <i_f3d_flags>  (95) 
0

>  <s_m_job_name>  (95) 
Saureus_o

>  <FRED Chemgauss4 score>  (95) 
-13.308404

>  <Set>  (95) 
training

>  <HBA count>  (95) 
3

>  <HBD count>  (95) 
0

>  <ExactMolWt>  (95) 
254.087769448

>  <NumRotatableBounds>  (95) 
4

>  <FractionCsp3>  (95) 
0.13333333333333333

>  <TPSA>  (95) 
17.82

>  <LogP_WildmanCrippen>  (95) 
3.968320000000003

>  <General_Cluster>  (95) 
4

>  <Biological_Cluster>  (95) 
2

>  <Physicochemical_Cluster>  (95) 
3

>  <Structural_Cluster>  (95) 
1

$$$$
CHEMBL4218049
     RDKit          3D

 42 45  0  0  1  0  0  0  0  0999 V2000
  109.9524   68.5917   31.4995 C   0  0  0  0  0  0  0  0  0  0  0  0
  111.0139   65.9442   41.2858 C   0  0  0  0  0  0  0  0  0  0  0  0
  109.7892   67.5338   32.3937 C   0  0  0  0  0  0  0  0  0  0  0  0
  110.2814   65.8747   42.4733 C   0  0  0  0  0  0  0  0  0  0  0  0
  110.3329   69.8491   31.9685 C   0  0  0  0  0  0  0  0  0  0  0  0
  109.1542   67.0327   40.1522 C   0  0  0  0  0  0  0  0  0  0  0  0
  110.4535   66.5200   40.1319 C   0  0  0  0  0  0  0  0  0  0  0  0
  110.0064   67.7332   33.7571 C   0  0  0  0  0  0  0  0  0  0  0  0
  109.0008   66.3881   42.4667 C   0  0  0  0  0  0  0  0  0  0  0  0
  108.4523   66.9517   41.3373 C   0  0  0  0  0  0  0  0  0  0  0  0
  110.5500   70.0485   33.3319 C   0  0  0  0  0  0  0  0  0  0  0  0
  110.3868   68.9906   34.2262 C   0  0  0  0  0  0  0  0  0  0  0  0
  111.1494   66.0282   35.1762 C   0  0  0  0  0  0  0  0  0  0  0  0
  112.2760   65.4448   38.6263 C   0  0  0  0  0  0  0  0  0  0  0  0
  112.5858   65.5409   37.1409 C   0  0  0  0  0  0  0  0  0  0  0  0
  110.4380   66.5289   37.5629 C   0  0  0  0  0  0  0  0  0  0  0  0
  106.9936   67.0484   42.9325 C   0  0  0  0  0  0  0  0  0  0  0  0
  111.2660   66.5830   38.8569 C   0  0  1  0  0  0  0  0  0  0  0  0
  109.8296   66.5934   34.7158 C   0  0  0  0  0  0  0  0  0  0  0  0
  111.3615   66.0435   36.5430 N   0  0  0  0  0  0  0  0  0  0  0  0
  111.9623   65.5960   34.3573 O   0  0  0  0  0  0  0  0  0  0  0  0
  108.1435   66.4092   43.5233 O   0  0  0  0  0  0  0  0  0  0  0  0
  107.1829   67.3959   41.5455 O   0  0  0  0  0  0  0  0  0  0  0  0
  110.9155   71.2557   33.7821 F   0  0  0  0  0  0  0  0  0  0  0  0
  110.5979   69.1919   35.5345 F   0  0  0  0  0  0  0  0  0  0  0  0
  109.7810   68.4345   30.4244 H   0  0  0  0  0  0  0  0  0  0  0  0
  112.0383   65.5449   41.2532 H   0  0  0  0  0  0  0  0  0  0  0  0
  109.4892   66.5423   32.0238 H   0  0  0  0  0  0  0  0  0  0  0  0
  110.7105   65.4265   43.3816 H   0  0  0  0  0  0  0  0  0  0  0  0
  110.4617   70.6834   31.2632 H   0  0  0  0  0  0  0  0  0  0  0  0
  108.7065   67.4850   39.2550 H   0  0  0  0  0  0  0  0  0  0  0  0
  111.8320   64.4691   38.8730 H   0  0  0  0  0  0  0  0  0  0  0  0
  113.1725   65.5330   39.2576 H   0  0  0  0  0  0  0  0  0  0  0  0
  113.4191   66.2363   36.9622 H   0  0  0  0  0  0  0  0  0  0  0  0
  112.8915   64.5738   36.7151 H   0  0  0  0  0  0  0  0  0  0  0  0
  109.5891   65.8385   37.6758 H   0  0  0  0  0  0  0  0  0  0  0  0
  110.0139   67.5099   37.3027 H   0  0  0  0  0  0  0  0  0  0  0  0
  106.1367   66.3627   43.0067 H   0  0  0  0  0  0  0  0  0  0  0  0
  106.8238   67.9857   43.4826 H   0  0  0  0  0  0  0  0  0  0  0  0
  111.7621   67.5488   39.0332 H   0  0  0  0  0  0  0  0  0  0  0  0
  109.2719   66.9518   35.5936 H   0  0  0  0  0  0  0  0  0  0  0  0
  109.2829   65.7941   34.1939 H   0  0  0  0  0  0  0  0  0  0  0  0
  1  3  2  0
  1  5  1  0
  2  4  2  0
  2  7  1  0
  3  8  1  0
  4  9  1  0
  5 11  2  0
  6  7  2  0
  6 10  1  0
  7 18  1  0
  8 12  2  0
  8 19  1  0
  9 10  2  0
  9 22  1  0
 10 23  1  0
 11 12  1  0
 11 24  1  0
 12 25  1  0
 13 19  1  0
 13 20  1  0
 13 21  2  0
 14 15  1  0
 14 18  1  0
 15 20  1  0
 16 18  1  0
 16 20  1  0
 17 22  1  0
 17 23  1  0
  1 26  1  0
  2 27  1  0
  3 28  1  0
  4 29  1  0
  5 30  1  0
  6 31  1  0
 14 32  1  0
 14 33  1  0
 15 34  1  0
 15 35  1  0
 16 36  1  0
 16 37  1  0
 17 38  1  0
 17 39  1  0
 18 40  1  1
 19 41  1  0
 19 42  1  0
M  END
>  <Name>  (96) 
CHEMBL4218049

>  <Comment>  (96) 
 Schrodinger Suite 2021-4.

>  <s_m_entry_id>  (96) 
1469

>  <s_m_Source_Path>  (96) 
C:\Users\vinicius\Desktop

>  <s_m_Source_File>  (96) 
Ligands_Saureus_failomega.smi

>  <i_m_Source_File_Index>  (96) 
23

>  <r_lp_tautomer_probability>  (96) 
1

>  <r_epik_Ionization_Penalty>  (96) 
0

>  <r_epik_State_Penalty>  (96) 
0

>  <i_epik_Tot_Q>  (96) 
0

>  <i_f3d_flags>  (96) 
0

>  <s_m_job_name>  (96) 
Saureus_fail

>  <class_value>  (96) 
0

>  <FRED Chemgauss4 score>  (96) 
-13.773997

>  <Set>  (96) 
training

>  <HBA count>  (96) 
3

>  <HBD count>  (96) 
0

>  <ExactMolWt>  (96) 
345.1176498440004

>  <NumRotatableBounds>  (96) 
3

>  <FractionCsp3>  (96) 
0.3157894736842105

>  <TPSA>  (96) 
38.77

>  <LogP_WildmanCrippen>  (96) 
3.252100000000002

>  <General_Cluster>  (96) 
2

>  <Biological_Cluster>  (96) 
2

>  <Physicochemical_Cluster>  (96) 
3

>  <Structural_Cluster>  (96) 
3

$$$$
CHEMBL568359
     RDKit          3D

 73 76  0  0  0  0  0  0  0  0999 V2000
  109.2398   66.6720   34.2217 C   0  0  0  0  0  0  0  0  0  0  0  0
  109.8241   66.6803   35.4883 C   0  0  0  0  0  0  0  0  0  0  0  0
  109.4177   67.7579   33.3644 C   0  0  0  0  0  0  0  0  0  0  0  0
  109.6537   64.3520   42.5414 C   0  0  0  0  0  0  0  0  0  0  0  0
  108.6193   66.0888   41.2949 C   0  0  0  0  0  0  0  0  0  0  0  0
  109.6853   65.2221   41.4587 C   0  0  0  0  0  0  0  0  0  0  0  0
  108.5599   64.3608   43.4079 C   0  0  0  0  0  0  0  0  0  0  0  0
  110.5861   67.7746   35.8976 C   0  0  0  0  0  0  0  0  0  0  0  0
  110.1798   68.8521   33.7738 C   0  0  0  0  0  0  0  0  0  0  0  0
  110.7640   68.8605   35.0404 C   0  0  0  0  0  0  0  0  0  0  0  0
  107.5331   65.2658   43.1559 C   0  0  0  0  0  0  0  0  0  0  0  0
  106.2122   64.4092   45.0617 C   0  0  0  0  0  0  0  0  0  0  0  0
  110.7942   65.2138   40.5224 C   0  0  0  0  0  0  0  0  0  0  0  0
  110.7619   65.7158   39.2652 C   0  0  0  0  0  0  0  0  0  0  0  0
  111.9628   65.6171   38.3841 C   0  0  0  0  0  0  0  0  0  0  0  0
  108.5192   63.5016   44.6363 C   0  0  0  0  0  0  0  0  0  0  0  0
  107.1290   62.4696   46.4443 C   0  0  0  0  0  0  0  0  0  0  0  0
  106.4778   62.1293   44.0150 C   0  0  0  0  0  0  0  0  0  0  0  0
  105.8578   61.7435   46.8716 C   0  0  0  0  0  0  0  0  0  0  0  0
  105.1893   61.4664   44.4846 C   0  0  0  0  0  0  0  0  0  0  0  0
  107.0730   63.1247   45.0428 C   0  0  0  0  0  0  0  0  0  0  0  0
  111.1500   73.2450   37.1658 C   0  0  0  0  0  0  0  0  0  0  0  0
  113.2525   66.5969   36.5259 C   0  0  0  0  0  0  0  0  0  0  0  0
  104.2494   59.9563   46.2275 C   0  0  0  0  0  0  0  0  0  0  0  0
  109.7145   69.8169   31.6504 C   0  0  0  0  0  0  0  0  0  0  0  0
  111.2068   67.7651   37.2647 C   0  0  0  0  0  0  0  0  0  0  0  0
  111.8129   72.0885   36.4394 C   0  0  0  0  0  0  0  0  0  0  0  0
  110.8187   70.9881   36.1014 C   0  0  0  0  0  0  0  0  0  0  0  0
  107.5498   66.1374   42.1201 N   0  0  0  0  0  0  0  0  0  0  0  0
  106.4381   65.3092   44.0362 N   0  0  0  0  0  0  0  0  0  0  0  0
  112.1206   66.6381   37.4427 N   0  0  0  0  0  0  0  0  0  0  0  0
  105.4351   60.7771   45.7996 N   0  0  0  0  0  4  0  0  0  0  0  0
  105.3167   64.5953   45.8867 O   0  0  0  0  0  0  0  0  0  0  0  0
  112.7294   64.6598   38.4996 O   0  0  0  0  0  0  0  0  0  0  0  0
  110.3454   69.9059   32.9264 O   0  0  0  0  0  0  0  0  0  0  0  0
  111.5083   69.9324   35.4364 O   0  0  0  0  0  0  0  0  0  0  0  0
  108.6387   65.8091   33.8989 H   0  0  0  0  0  0  0  0  0  0  0  0
  109.6840   65.8239   36.1643 H   0  0  0  0  0  0  0  0  0  0  0  0
  108.9570   67.7513   32.3655 H   0  0  0  0  0  0  0  0  0  0  0  0
  110.4890   63.6577   42.7152 H   0  0  0  0  0  0  0  0  0  0  0  0
  108.6436   66.7810   40.4404 H   0  0  0  0  0  0  0  0  0  0  0  0
  111.7383   64.7627   40.8619 H   0  0  0  0  0  0  0  0  0  0  0  0
  109.8468   66.1984   38.8916 H   0  0  0  0  0  0  0  0  0  0  0  0
  109.0837   62.5780   44.4407 H   0  0  0  0  0  0  0  0  0  0  0  0
  108.9622   64.0759   45.4633 H   0  0  0  0  0  0  0  0  0  0  0  0
  107.3340   63.2598   47.1816 H   0  0  0  0  0  0  0  0  0  0  0  0
  107.9162   61.7031   46.3923 H   0  0  0  0  0  0  0  0  0  0  0  0
  107.2224   61.3434   43.8204 H   0  0  0  0  0  0  0  0  0  0  0  0
  106.2331   62.7064   43.1111 H   0  0  0  0  0  0  0  0  0  0  0  0
  106.0485   61.1928   47.8045 H   0  0  0  0  0  0  0  0  0  0  0  0
  105.0565   62.4800   47.0315 H   0  0  0  0  0  0  0  0  0  0  0  0
  104.4079   62.2303   44.6106 H   0  0  0  0  0  0  0  0  0  0  0  0
  104.8610   60.7287   43.7376 H   0  0  0  0  0  0  0  0  0  0  0  0
  111.2367   73.0938   38.2519 H   0  0  0  0  0  0  0  0  0  0  0  0
  111.6457   74.1862   36.8859 H   0  0  0  0  0  0  0  0  0  0  0  0
  110.0873   73.2930   36.8859 H   0  0  0  0  0  0  0  0  0  0  0  0
  114.1894   66.5628   37.1013 H   0  0  0  0  0  0  0  0  0  0  0  0
  113.1786   65.7008   35.8922 H   0  0  0  0  0  0  0  0  0  0  0  0
  113.2440   67.4960   35.8922 H   0  0  0  0  0  0  0  0  0  0  0  0
  104.2029   59.9241   47.3260 H   0  0  0  0  0  0  0  0  0  0  0  0
  103.3279   60.4107   45.8347 H   0  0  0  0  0  0  0  0  0  0  0  0
  104.3503   58.9338   45.8347 H   0  0  0  0  0  0  0  0  0  0  0  0
  108.6336   69.6644   31.7857 H   0  0  0  0  0  0  0  0  0  0  0  0
  109.8862   70.7482   31.0907 H   0  0  0  0  0  0  0  0  0  0  0  0
  110.1371   68.9695   31.0907 H   0  0  0  0  0  0  0  0  0  0  0  0
  111.7657   68.7017   37.4076 H   0  0  0  0  0  0  0  0  0  0  0  0
  110.3986   67.6677   38.0045 H   0  0  0  0  0  0  0  0  0  0  0  0
  112.2596   72.4633   35.5067 H   0  0  0  0  0  0  0  0  0  0  0  0
  112.5803   71.6633   37.1030 H   0  0  0  0  0  0  0  0  0  0  0  0
  110.3619   70.6060   37.0263 H   0  0  0  0  0  0  0  0  0  0  0  0
  110.0283   71.3870   35.4485 H   0  0  0  0  0  0  0  0  0  0  0  0
  105.7531   66.0676   43.9080 H   0  0  0  0  0  0  0  0  0  0  0  0
  106.2207   60.1269   45.6549 H   0  0  0  0  0  0  0  0  0  0  0  0
  1  2  2  0
  1  3  1  0
  2  8  1  0
  3  9  2  0
  4  6  2  0
  4  7  1  0
  5  6  1  0
  5 29  2  0
  6 13  1  0
  7 11  2  0
  7 16  1  0
  8 10  2  0
  8 26  1  0
  9 10  1  0
  9 35  1  0
 10 36  1  0
 11 29  1  0
 11 30  1  0
 12 21  1  0
 12 30  1  0
 12 33  2  0
 13 14  2  0
 14 15  1  0
 15 31  1  0
 15 34  2  0
 16 21  1  0
 17 19  1  0
 17 21  1  0
 18 20  1  0
 18 21  1  0
 19 32  1  0
 20 32  1  0
 22 27  1  0
 23 31  1  0
 24 32  1  0
 25 35  1  0
 26 31  1  0
 27 28  1  0
 28 36  1  0
  1 37  1  0
  2 38  1  0
  3 39  1  0
  4 40  1  0
  5 41  1  0
 13 42  1  0
 14 43  1  0
 16 44  1  0
 16 45  1  0
 17 46  1  0
 17 47  1  0
 18 48  1  0
 18 49  1  0
 19 50  1  0
 19 51  1  0
 20 52  1  0
 20 53  1  0
 22 54  1  0
 22 55  1  0
 22 56  1  0
 23 57  1  0
 23 58  1  0
 23 59  1  0
 24 60  1  0
 24 61  1  0
 24 62  1  0
 25 63  1  0
 25 64  1  0
 25 65  1  0
 26 66  1  0
 26 67  1  0
 27 68  1  0
 27 69  1  0
 28 70  1  0
 28 71  1  0
 30 72  1  0
 32 73  1  0
M  CHG  1  32   1
M  END
>  <Name>  (97) 
CHEMBL568359

>  <Comment>  (97) 
 Schrodinger Suite 2021-4.

>  <s_m_entry_id>  (97) 
1086

>  <class_value>  (97) 
1

>  <s_m_Source_Path>  (97) 
C:\Users\vinicius\Desktop

>  <s_m_Source_File>  (97) 
Ligands_Saureus_o.sdf

>  <i_m_Source_File_Index>  (97) 
12

>  <r_lp_tautomer_probability>  (97) 
1

>  <r_epik_Ionization_Penalty>  (97) 
0.0062

>  <r_epik_State_Penalty>  (97) 
0.0045

>  <i_epik_Tot_Q>  (97) 
1

>  <i_f3d_flags>  (97) 
0

>  <s_m_job_name>  (97) 
Saureus_o

>  <FRED Chemgauss4 score>  (97) 
-13.224483

>  <Set>  (97) 
training

>  <HBA count>  (97) 
5

>  <HBD count>  (97) 
2

>  <ExactMolWt>  (97) 
493.28093208409103

>  <NumRotatableBounds>  (97) 
12

>  <FractionCsp3>  (97) 
0.4642857142857143

>  <TPSA>  (97) 
85.20000000000002

>  <LogP_WildmanCrippen>  (97) 
2.3403

>  <General_Cluster>  (97) 
1

>  <Biological_Cluster>  (97) 
1

>  <Physicochemical_Cluster>  (97) 
4

>  <Structural_Cluster>  (97) 
2

$$$$
Zheng_7
     RDKit          3D

 50 54  0  0  1  0  0  0  0  0999 V2000
  110.3967   68.2459   34.0345 C   0  0  0  0  0  0  0  0  0  0  0  0
  110.5953   67.1078   34.8201 C   0  0  0  0  0  0  0  0  0  0  0  0
  110.6120   69.5366   34.5566 C   0  0  0  0  0  0  0  0  0  0  0  0
  109.0458   67.1631   43.5100 C   0  0  0  0  0  0  0  0  0  0  0  0
  109.6345   68.7777   44.7657 C   0  0  0  0  0  0  0  0  0  0  0  0
  110.9840   67.2973   36.1303 C   0  0  0  0  0  0  0  0  0  0  0  0
  111.1693   68.5966   36.6668 C   0  0  0  0  0  0  0  0  0  0  0  0
  111.0155   69.7216   35.8821 C   0  0  0  0  0  0  0  0  0  0  0  0
  110.2832   67.5514   43.0534 C   0  0  0  0  0  0  0  0  0  0  0  0
  110.8185   65.0004   37.4402 C   0  0  0  0  0  0  0  0  0  0  0  0
  110.9854   64.3920   38.6407 C   0  0  0  0  0  0  0  0  0  0  0  0
  110.8767   67.1628   40.7057 C   0  0  0  0  0  0  0  0  0  0  0  0
  111.7784   65.2069   39.7062 C   0  0  0  0  0  0  0  0  0  0  0  0
  109.5749   67.6504   40.1598 C   0  0  0  0  0  0  0  0  0  0  0  0
  113.1312   64.0261   35.4708 C   0  0  0  0  0  0  0  0  0  0  0  0
  111.1687   67.1290   42.0067 C   0  0  0  0  0  0  0  0  0  0  0  0
  113.1650   64.6401   36.6601 C   0  0  0  0  0  0  0  0  0  0  0  0
  111.4284   66.3293   37.1888 C   0  0  2  0  0  0  0  0  0  0  0  0
  111.0835   67.2074   38.4186 C   0  0  1  0  0  0  0  0  0  0  0  0
  113.3547   66.9170   35.6965 C   0  0  0  0  0  0  0  0  0  0  0  0
  113.7092   66.6557   38.1561 C   0  0  0  0  0  0  0  0  0  0  0  0
  112.9540   66.1133   36.9375 C   0  0  0  0  0  0  0  0  0  0  0  0
  108.6475   67.9305   44.5758 N   0  0  0  0  0  0  0  0  0  0  0  0
  110.6472   68.5869   43.8673 N   0  0  0  0  0  0  0  0  0  0  0  0
  111.5719   68.5419   38.0354 N   0  0  0  0  0  0  0  0  0  0  0  0
  109.6841   67.4379   38.7810 N   0  0  0  0  0  0  0  0  0  0  0  0
  111.6075   66.6179   39.6497 N   0  0  0  0  0  0  0  0  0  0  0  0
  110.6117   63.2511   39.0279 O   0  0  0  0  0  1  0  0  0  0  0  0
  112.3950   64.6316   40.6051 O   0  0  0  0  0  0  0  0  0  0  0  0
  108.6326   68.0842   40.7957 O   0  0  0  0  0  0  0  0  0  0  0  0
  111.2995   71.4588   36.5566 Br  0  0  0  0  0  0  0  0  0  0  0  0
  110.0668   68.1324   32.9913 H   0  0  0  0  0  0  0  0  0  0  0  0
  110.4473   66.0982   34.4093 H   0  0  0  0  0  0  0  0  0  0  0  0
  110.4600   70.4136   33.9103 H   0  0  0  0  0  0  0  0  0  0  0  0
  108.4524   66.3441   43.0774 H   0  0  0  0  0  0  0  0  0  0  0  0
  109.6444   69.5468   45.5520 H   0  0  0  0  0  0  0  0  0  0  0  0
  110.2302   64.5080   36.6519 H   0  0  0  0  0  0  0  0  0  0  0  0
  113.3025   62.9414   35.4068 H   0  0  0  0  0  0  0  0  0  0  0  0
  112.9322   64.6063   34.5577 H   0  0  0  0  0  0  0  0  0  0  0  0
  112.1595   66.7501   42.2980 H   0  0  0  0  0  0  0  0  0  0  0  0
  113.3689   64.0029   37.5332 H   0  0  0  0  0  0  0  0  0  0  0  0
  113.8255   67.8613   36.0075 H   0  0  0  0  0  0  0  0  0  0  0  0
  114.0670   66.3327   35.0955 H   0  0  0  0  0  0  0  0  0  0  0  0
  112.4594   67.1342   35.0955 H   0  0  0  0  0  0  0  0  0  0  0  0
  113.2202   66.3045   39.0767 H   0  0  0  0  0  0  0  0  0  0  0  0
  114.7486   66.2964   38.1331 H   0  0  0  0  0  0  0  0  0  0  0  0
  113.7008   67.7554   38.1331 H   0  0  0  0  0  0  0  0  0  0  0  0
  111.5238   69.1250   43.8138 H   0  0  0  0  0  0  0  0  0  0  0  0
  112.0689   69.2450   38.6008 H   0  0  0  0  0  0  0  0  0  0  0  0
  108.8956   67.4429   38.1184 H   0  0  0  0  0  0  0  0  0  0  0  0
  1  2  2  0
  1  3  1  0
  2  6  1  0
  3  8  2  0
  4  9  2  0
  4 23  1  0
  5 23  2  0
  5 24  1  0
  6  7  2  0
  6 18  1  0
  7  8  1  0
  7 25  1  0
  8 31  1  0
  9 16  1  0
  9 24  1  0
 10 11  2  0
 10 18  1  0
 11 13  1  0
 11 28  1  0
 12 14  1  0
 12 16  2  0
 12 27  1  0
 13 27  1  0
 13 29  2  0
 14 26  1  0
 14 30  2  0
 15 17  2  3
 17 22  1  0
 18 19  1  0
 18 22  1  6
 19 25  1  6
 19 26  1  0
 19 27  1  0
 20 22  1  0
 21 22  1  0
  1 32  1  0
  2 33  1  0
  3 34  1  0
  4 35  1  0
  5 36  1  0
 10 37  1  0
 15 38  1  0
 15 39  1  0
 16 40  1  0
 17 41  1  0
 20 42  1  0
 20 43  1  0
 20 44  1  0
 21 45  1  0
 21 46  1  0
 21 47  1  0
 24 48  1  0
 25 49  1  0
 26 50  1  0
M  CHG  1  28  -1
M  END
>  <Name>  (98) 
Zheng_7

>  <Comment>  (98) 
 Schrodinger Suite 2021-4.

>  <s_m_entry_id>  (98) 
1414

>  <class_value>  (98) 
0

>  <s_m_Source_Path>  (98) 
C:\Users\vinicius\Desktop

>  <s_m_Source_File>  (98) 
Ligands_Saureus_o.sdf

>  <i_m_Source_File_Index>  (98) 
234

>  <r_epik_Ionization_Penalty>  (98) 
0.6715

>  <r_epik_State_Penalty>  (98) 
0.7068

>  <i_epik_Tot_Q>  (98) 
-1

>  <i_f3d_flags>  (98) 
0

>  <s_m_job_name>  (98) 
Saureus_o

>  <FRED Chemgauss4 score>  (98) 
-9.822433

>  <Set>  (98) 
training

>  <HBA count>  (98) 
5

>  <HBD count>  (98) 
3

>  <ExactMolWt>  (98) 
480.06767514791056

>  <NumRotatableBounds>  (98) 
5

>  <FractionCsp3>  (98) 
0.22727272727272727

>  <TPSA>  (98) 
113.18

>  <LogP_WildmanCrippen>  (98) 
1.9587999999999997

>  <General_Cluster>  (98) 
5

>  <Biological_Cluster>  (98) 
2

>  <Physicochemical_Cluster>  (98) 
4

>  <Structural_Cluster>  (98) 
3

$$$$
CHEMBL2178285
     RDKit          3D

 37 38  0  0  0  0  0  0  0  0999 V2000
  110.6264   70.1766   34.1593 C   0  0  0  0  0  0  0  0  0  0  0  0
  110.2104   69.0754   34.9076 C   0  0  0  0  0  0  0  0  0  0  0  0
  111.2148   68.7116   32.3305 C   0  0  0  0  0  0  0  0  0  0  0  0
  112.2985   65.4403   37.5781 C   0  0  0  0  0  0  0  0  0  0  0  0
  110.0292   67.0594   37.4699 C   0  0  0  0  0  0  0  0  0  0  0  0
  111.1285   69.9947   32.8707 C   0  0  0  0  0  0  0  0  0  0  0  0
  111.7983   66.0188   38.7445 C   0  0  0  0  0  0  0  0  0  0  0  0
  110.2967   67.7923   34.3674 C   0  0  0  0  0  0  0  0  0  0  0  0
  111.6641   65.6713   36.3574 C   0  0  0  0  0  0  0  0  0  0  0  0
  110.5295   66.4809   36.3034 C   0  0  0  0  0  0  0  0  0  0  0  0
  110.7989   67.6104   33.0788 C   0  0  0  0  0  0  0  0  0  0  0  0
  110.6637   66.8283   38.6905 C   0  0  0  0  0  0  0  0  0  0  0  0
  111.5626   71.1427   32.0903 C   0  0  0  0  0  0  0  0  0  0  0  0
  112.1618   64.3881   40.6141 C   0  0  0  0  0  0  0  0  0  0  0  0
  112.4441   73.4881   32.1713 C   0  0  0  0  0  0  0  0  0  0  0  0
  112.4785   65.7700   40.0481 C   0  0  0  0  0  0  0  0  0  0  0  0
  112.0040   72.2644   32.8018 N   0  0  0  0  0  0  0  0  0  0  0  0
  111.5159   71.1155   30.8477 O   0  0  0  0  0  0  0  0  0  0  0  0
  112.1616   65.1006   35.2249 O   0  0  0  0  0  0  0  0  0  0  0  0
  109.8907   66.7180   35.0978 O   0  0  0  0  0  0  0  0  0  0  0  0
  110.8841   66.3804   32.5536 F   0  0  0  0  0  0  0  0  0  0  0  0
  110.1756   67.3887   39.8060 F   0  0  0  0  0  0  0  0  0  0  0  0
  110.5585   71.1885   34.5854 H   0  0  0  0  0  0  0  0  0  0  0  0
  109.8143   69.2189   35.9237 H   0  0  0  0  0  0  0  0  0  0  0  0
  111.6109   68.5682   31.3143 H   0  0  0  0  0  0  0  0  0  0  0  0
  113.1933   64.8019   37.6208 H   0  0  0  0  0  0  0  0  0  0  0  0
  109.1344   67.6978   37.4273 H   0  0  0  0  0  0  0  0  0  0  0  0
  112.1716   64.4310   41.7132 H   0  0  0  0  0  0  0  0  0  0  0  0
  111.1673   64.0694   40.2685 H   0  0  0  0  0  0  0  0  0  0  0  0
  112.9182   63.6681   40.2685 H   0  0  0  0  0  0  0  0  0  0  0  0
  112.7089   74.2243   32.9445 H   0  0  0  0  0  0  0  0  0  0  0  0
  113.3243   73.2817   31.5447 H   0  0  0  0  0  0  0  0  0  0  0  0
  111.6341   73.8896   31.5447 H   0  0  0  0  0  0  0  0  0  0  0  0
  113.5656   65.8509   39.9007 H   0  0  0  0  0  0  0  0  0  0  0  0
  112.1128   66.5189   40.7661 H   0  0  0  0  0  0  0  0  0  0  0  0
  112.0158   72.2150   33.8305 H   0  0  0  0  0  0  0  0  0  0  0  0
  111.7175   65.2593   34.3544 H   0  0  0  0  0  0  0  0  0  0  0  0
  1  2  2  0
  1  6  1  0
  2  8  1  0
  3  6  2  0
  3 11  1  0
  4  7  2  0
  4  9  1  0
  5 10  1  0
  5 12  2  0
  6 13  1  0
  7 12  1  0
  7 16  1  0
  8 11  2  0
  8 20  1  0
  9 10  2  0
  9 19  1  0
 10 20  1  0
 11 21  1  0
 12 22  1  0
 13 17  1  0
 13 18  2  0
 14 16  1  0
 15 17  1  0
  1 23  1  0
  2 24  1  0
  3 25  1  0
  4 26  1  0
  5 27  1  0
 14 28  1  0
 14 29  1  0
 14 30  1  0
 15 31  1  0
 15 32  1  0
 15 33  1  0
 16 34  1  0
 16 35  1  0
 17 36  1  0
 19 37  1  0
M  END
>  <Name>  (99) 
CHEMBL2178285

>  <Comment>  (99) 
 Schrodinger Suite 2021-4.

>  <s_m_entry_id>  (99) 
1110

>  <class_value>  (99) 
1

>  <s_m_Source_Path>  (99) 
C:\Users\vinicius\Desktop

>  <s_m_Source_File>  (99) 
Ligands_Saureus_o.sdf

>  <i_m_Source_File_Index>  (99) 
31

>  <r_lp_tautomer_probability>  (99) 
0.999999999999776

>  <r_epik_Ionization_Penalty>  (99) 
0.0372

>  <r_epik_State_Penalty>  (99) 
0.0311

>  <i_epik_Tot_Q>  (99) 
0

>  <i_f3d_flags>  (99) 
0

>  <s_m_job_name>  (99) 
Saureus_o

>  <FRED Chemgauss4 score>  (99) 
-13.470912

>  <Set>  (99) 
training

>  <HBA count>  (99) 
3

>  <HBD count>  (99) 
2

>  <ExactMolWt>  (99) 
307.1019997800004

>  <NumRotatableBounds>  (99) 
7

>  <FractionCsp3>  (99) 
0.1875

>  <TPSA>  (99) 
58.56

>  <LogP_WildmanCrippen>  (99) 
3.384700000000001

>  <General_Cluster>  (99) 
1

>  <Biological_Cluster>  (99) 
1

>  <Physicochemical_Cluster>  (99) 
1

>  <Structural_Cluster>  (99) 
3

$$$$
CHEMBL567084
     RDKit          3D

 51 54  0  0  0  0  0  0  0  0999 V2000
  111.7616   72.9082   34.4333 C   0  0  0  0  0  0  0  0  0  0  0  0
  111.6767   71.7782   35.2488 C   0  0  0  0  0  0  0  0  0  0  0  0
  110.8483   71.6689   32.5716 C   0  0  0  0  0  0  0  0  0  0  0  0
  110.4090   67.1632   39.2374 C   0  0  0  0  0  0  0  0  0  0  0  0
  112.3791   66.2303   40.1271 C   0  0  0  0  0  0  0  0  0  0  0  0
  110.7494   70.5055   33.3726 C   0  0  0  0  0  0  0  0  0  0  0  0
  111.6026   66.4881   39.0250 C   0  0  0  0  0  0  0  0  0  0  0  0
  110.2730   69.1898   33.0531 C   0  0  0  0  0  0  0  0  0  0  0  0
  109.9938   67.5666   40.5244 C   0  0  0  0  0  0  0  0  0  0  0  0
  111.3523   72.8565   33.1084 C   0  0  0  0  0  0  0  0  0  0  0  0
  111.1681   70.5825   34.7045 C   0  0  0  0  0  0  0  0  0  0  0  0
  110.3389   68.3236   34.1185 C   0  0  0  0  0  0  0  0  0  0  0  0
  110.8382   67.2193   41.5824 C   0  0  0  0  0  0  0  0  0  0  0  0
  109.4913   67.8722   43.6505 C   0  0  0  0  0  0  0  0  0  0  0  0
  112.0197   66.0876   37.6946 C   0  0  0  0  0  0  0  0  0  0  0  0
  111.2023   65.9578   36.6224 C   0  0  0  0  0  0  0  0  0  0  0  0
  111.7487   65.5051   35.3091 C   0  0  0  0  0  0  0  0  0  0  0  0
  108.2040   68.1278   42.9200 C   0  0  0  0  0  0  0  0  0  0  0  0
  108.4072   69.0546   41.7476 C   0  0  0  0  0  0  0  0  0  0  0  0
  109.7602   68.8029   31.7134 C   0  0  0  0  0  0  0  0  0  0  0  0
  111.5503   65.5668   32.8528 C   0  0  0  0  0  0  0  0  0  0  0  0
  109.9364   66.8786   34.1833 C   0  0  0  0  0  0  0  0  0  0  0  0
  112.0275   66.5805   41.3802 N   0  0  0  0  0  0  0  0  0  0  0  0
  108.8299   68.3018   40.5965 N   0  0  0  0  0  0  0  0  0  0  0  0
  110.5934   67.4512   42.9551 N   0  0  0  0  0  0  0  0  0  0  0  0
  111.0948   65.9871   34.1716 N   0  0  0  0  0  0  0  0  0  0  0  0
  109.5259   67.9897   44.8803 O   0  0  0  0  0  0  0  0  0  0  0  0
  112.7065   64.7311   35.2790 O   0  0  0  0  0  0  0  0  0  0  0  0
  111.4404   73.9495   32.3388 F   0  0  0  0  0  0  0  0  0  0  0  0
  110.9708   69.0724   35.5132 S   0  0  0  0  0  0  0  0  0  0  0  0
  112.1568   73.8486   34.8450 H   0  0  0  0  0  0  0  0  0  0  0  0
  112.0015   71.8208   36.2989 H   0  0  0  0  0  0  0  0  0  0  0  0
  110.5264   71.6376   31.5202 H   0  0  0  0  0  0  0  0  0  0  0  0
  109.7657   67.3913   38.3748 H   0  0  0  0  0  0  0  0  0  0  0  0
  113.3377   65.7112   39.9800 H   0  0  0  0  0  0  0  0  0  0  0  0
  113.0877   65.8715   37.5441 H   0  0  0  0  0  0  0  0  0  0  0  0
  110.1309   66.1870   36.7199 H   0  0  0  0  0  0  0  0  0  0  0  0
  107.8050   67.1704   42.5536 H   0  0  0  0  0  0  0  0  0  0  0  0
  107.5002   68.6044   43.6182 H   0  0  0  0  0  0  0  0  0  0  0  0
  107.4614   69.5683   41.5204 H   0  0  0  0  0  0  0  0  0  0  0  0
  109.1806   69.7948   42.0005 H   0  0  0  0  0  0  0  0  0  0  0  0
  108.8871   68.1442   31.8312 H   0  0  0  0  0  0  0  0  0  0  0  0
  109.4660   69.7060   31.1586 H   0  0  0  0  0  0  0  0  0  0  0  0
  110.5478   68.2721   31.1586 H   0  0  0  0  0  0  0  0  0  0  0  0
  112.3547   64.8245   32.9621 H   0  0  0  0  0  0  0  0  0  0  0  0
  110.7109   65.1192   32.3004 H   0  0  0  0  0  0  0  0  0  0  0  0
  111.9291   66.4394   32.3004 H   0  0  0  0  0  0  0  0  0  0  0  0
  109.3673   66.7095   35.1093 H   0  0  0  0  0  0  0  0  0  0  0  0
  109.3265   66.6553   33.2955 H   0  0  0  0  0  0  0  0  0  0  0  0
  108.2192   68.3130   39.7671 H   0  0  0  0  0  0  0  0  0  0  0  0
  111.4103   67.2658   43.5544 H   0  0  0  0  0  0  0  0  0  0  0  0
  1  2  2  0
  1 10  1  0
  2 11  1  0
  3  6  1  0
  3 10  2  0
  4  7  2  0
  4  9  1  0
  5  7  1  0
  5 23  2  0
  6  8  1  0
  6 11  2  0
  7 15  1  0
  8 12  2  0
  8 20  1  0
  9 13  2  0
  9 24  1  0
 10 29  1  0
 11 30  1  0
 12 22  1  0
 12 30  1  0
 13 23  1  0
 13 25  1  0
 14 18  1  0
 14 25  1  0
 14 27  2  0
 15 16  2  0
 16 17  1  0
 17 26  1  0
 17 28  2  0
 18 19  1  0
 19 24  1  0
 21 26  1  0
 22 26  1  0
  1 31  1  0
  2 32  1  0
  3 33  1  0
  4 34  1  0
  5 35  1  0
 15 36  1  0
 16 37  1  0
 18 38  1  0
 18 39  1  0
 19 40  1  0
 19 41  1  0
 20 42  1  0
 20 43  1  0
 20 44  1  0
 21 45  1  0
 21 46  1  0
 21 47  1  0
 22 48  1  0
 22 49  1  0
 24 50  1  0
 25 51  1  0
M  END
>  <Name>  (100) 
CHEMBL567084

>  <Comment>  (100) 
 Schrodinger Suite 2021-4.

>  <s_m_entry_id>  (100) 
1347

>  <class_value>  (100) 
1

>  <s_m_Source_Path>  (100) 
C:\Users\vinicius\Desktop

>  <s_m_Source_File>  (100) 
Ligands_Saureus_o.sdf

>  <i_m_Source_File_Index>  (100) 
204

>  <r_lp_tautomer_probability>  (100) 
1

>  <r_epik_Ionization_Penalty>  (100) 
0.0015

>  <r_epik_State_Penalty>  (100) 
0

>  <i_epik_Tot_Q>  (100) 
0

>  <i_f3d_flags>  (100) 
0

>  <s_m_job_name>  (100) 
Saureus_o

>  <FRED Chemgauss4 score>  (100) 
-16.561718

>  <Set>  (100) 
training

>  <HBA count>  (100) 
5

>  <HBD count>  (100) 
2

>  <ExactMolWt>  (100) 
424.13692513200067

>  <NumRotatableBounds>  (100) 
6

>  <FractionCsp3>  (100) 
0.22727272727272727

>  <TPSA>  (100) 
74.33000000000001

>  <LogP_WildmanCrippen>  (100) 
4.169720000000003

>  <General_Cluster>  (100) 
1

>  <Biological_Cluster>  (100) 
1

>  <Physicochemical_Cluster>  (100) 
1

>  <Structural_Cluster>  (100) 
2

$$$$
CHEMBL3621749
     RDKit          3D

 44 47  0  0  0  0  0  0  0  0999 V2000
  106.5319   62.7197   44.6999 C   0  0  0  0  0  0  0  0  0  0  0  0
  107.8886   63.0232   44.8118 C   0  0  0  0  0  0  0  0  0  0  0  0
  105.8430   63.0266   43.5264 C   0  0  0  0  0  0  0  0  0  0  0  0
  109.0780   68.9303   34.3672 C   0  0  0  0  0  0  0  0  0  0  0  0
  108.5567   63.6337   43.7504 C   0  0  0  0  0  0  0  0  0  0  0  0
  106.5110   63.6371   42.4649 C   0  0  0  0  0  0  0  0  0  0  0  0
  109.9981   69.7881   34.9699 C   0  0  0  0  0  0  0  0  0  0  0  0
  109.1032   67.5659   34.6563 C   0  0  0  0  0  0  0  0  0  0  0  0
  107.8679   63.9406   42.5769 C   0  0  0  0  0  0  0  0  0  0  0  0
  110.9687   67.9172   36.1509 C   0  0  0  0  0  0  0  0  0  0  0  0
  110.9434   69.2815   35.8618 C   0  0  0  0  0  0  0  0  0  0  0  0
  110.0486   67.0594   35.5482 C   0  0  0  0  0  0  0  0  0  0  0  0
  111.2163   64.7427   39.6337 C   0  0  0  0  0  0  0  0  0  0  0  0
  110.6425   67.4044   39.0511 C   0  0  0  0  0  0  0  0  0  0  0  0
  111.4194   66.7880   38.1492 C   0  0  0  0  0  0  0  0  0  0  0  0
  110.4444   65.4724   40.4637 C   0  0  0  0  0  0  0  0  0  0  0  0
  111.7647   65.3643   38.3985 C   0  0  0  0  0  0  0  0  0  0  0  0
  108.5244   68.8144   40.6307 C   0  0  0  0  0  0  0  0  0  0  0  0
  107.7871   67.5718   41.0344 C   0  0  0  0  0  0  0  0  0  0  0  0
  109.2874   67.6134   41.1157 C   0  0  0  0  0  0  0  0  0  0  0  0
  109.8981   64.8255   41.7103 C   0  0  0  0  0  0  0  0  0  0  0  0
  110.1315   66.8203   40.2045 N   0  0  0  0  0  0  0  0  0  0  0  0
  112.4697   64.7243   37.6265 O   0  0  0  0  0  0  0  0  0  0  0  0
  111.8954   67.4200   37.0265 O   0  0  0  0  0  0  0  0  0  0  0  0
  108.5252   64.5436   41.5313 O   0  0  0  0  0  0  0  0  0  0  0  0
  112.0678   70.3695   36.5897 Cl  0  0  0  0  0  0  0  0  0  0  0  0
  110.0551   65.3666   35.8837 Cl  0  0  0  0  0  0  0  0  0  0  0  0
  106.0051   62.2383   45.5370 H   0  0  0  0  0  0  0  0  0  0  0  0
  108.4318   62.7811   45.7372 H   0  0  0  0  0  0  0  0  0  0  0  0
  104.7730   62.7872   43.4381 H   0  0  0  0  0  0  0  0  0  0  0  0
  108.3325   69.3298   33.6639 H   0  0  0  0  0  0  0  0  0  0  0  0
  109.6267   63.8731   43.8388 H   0  0  0  0  0  0  0  0  0  0  0  0
  105.9678   63.8792   41.5395 H   0  0  0  0  0  0  0  0  0  0  0  0
  109.9782   70.8640   34.7419 H   0  0  0  0  0  0  0  0  0  0  0  0
  108.3776   66.8894   34.1810 H   0  0  0  0  0  0  0  0  0  0  0  0
  111.4398   63.6916   39.8689 H   0  0  0  0  0  0  0  0  0  0  0  0
  110.3887   68.4581   38.8633 H   0  0  0  0  0  0  0  0  0  0  0  0
  108.5726   69.1053   39.5710 H   0  0  0  0  0  0  0  0  0  0  0  0
  108.4778   69.8747   40.9199 H   0  0  0  0  0  0  0  0  0  0  0  0
  107.1866   67.5637   41.9560 H   0  0  0  0  0  0  0  0  0  0  0  0
  107.0528   66.9115   40.5498 H   0  0  0  0  0  0  0  0  0  0  0  0
  110.0290   67.4281   41.9067 H   0  0  0  0  0  0  0  0  0  0  0  0
  110.4421   63.8898   41.9064 H   0  0  0  0  0  0  0  0  0  0  0  0
  110.0242   65.5084   42.5634 H   0  0  0  0  0  0  0  0  0  0  0  0
  1  2  2  0
  1  3  1  0
  2  5  1  0
  3  6  2  0
  4  7  2  0
  4  8  1  0
  5  9  2  0
  6  9  1  0
  7 11  1  0
  8 12  2  0
  9 25  1  0
 10 11  2  0
 10 12  1  0
 10 24  1  0
 11 26  1  0
 12 27  1  0
 13 16  2  0
 13 17  1  0
 14 15  2  0
 14 22  1  0
 15 17  1  0
 15 24  1  0
 16 21  1  0
 16 22  1  0
 17 23  2  0
 18 19  1  0
 18 20  1  0
 19 20  1  0
 20 22  1  0
 21 25  1  0
  1 28  1  0
  2 29  1  0
  3 30  1  0
  4 31  1  0
  5 32  1  0
  6 33  1  0
  7 34  1  0
  8 35  1  0
 13 36  1  0
 14 37  1  0
 18 38  1  0
 18 39  1  0
 19 40  1  0
 19 41  1  0
 20 42  1  0
 21 43  1  0
 21 44  1  0
M  END
>  <Name>  (101) 
CHEMBL3621749

>  <Comment>  (101) 
 Schrodinger Suite 2021-4.

>  <s_m_entry_id>  (101) 
1256

>  <class_value>  (101) 
0

>  <s_m_Source_Path>  (101) 
C:\Users\vinicius\Desktop

>  <s_m_Source_File>  (101) 
Ligands_Saureus_o.sdf

>  <i_m_Source_File_Index>  (101) 
148

>  <r_lp_tautomer_probability>  (101) 
1

>  <r_epik_Ionization_Penalty>  (101) 
0

>  <r_epik_State_Penalty>  (101) 
0

>  <i_epik_Tot_Q>  (101) 
0

>  <i_f3d_flags>  (101) 
0

>  <s_m_job_name>  (101) 
Saureus_o

>  <FRED Chemgauss4 score>  (101) 
-12.969868

>  <Set>  (101) 
training

>  <HBA count>  (101) 
4

>  <HBD count>  (101) 
0

>  <ExactMolWt>  (101) 
401.0585487640004

>  <NumRotatableBounds>  (101) 
6

>  <FractionCsp3>  (101) 
0.19047619047619047

>  <TPSA>  (101) 
40.46

>  <LogP_WildmanCrippen>  (101) 
5.861300000000003

>  <General_Cluster>  (101) 
1

>  <Biological_Cluster>  (101) 
2

>  <Physicochemical_Cluster>  (101) 
1

>  <Structural_Cluster>  (101) 
5

$$$$
CHEMBL3676406
     RDKit          3D

 48 51  0  0  1  0  0  0  0  0999 V2000
  109.8797   66.5806   39.4678 C   0  0  0  0  0  0  0  0  0  0  0  0
  112.1279   66.2643   40.1657 C   0  0  0  0  0  0  0  0  0  0  0  0
  111.2101   66.3578   39.1346 C   0  0  0  0  0  0  0  0  0  0  0  0
  109.5065   66.6824   40.8087 C   0  0  0  0  0  0  0  0  0  0  0  0
  110.5041   66.5681   41.7764 C   0  0  0  0  0  0  0  0  0  0  0  0
  110.6538   68.9412   35.4753 C   0  0  0  0  0  0  0  0  0  0  0  0
  111.3790   70.2719   36.8834 C   0  0  0  0  0  0  0  0  0  0  0  0
  108.8575   66.7438   43.6048 C   0  0  0  0  0  0  0  0  0  0  0  0
  111.6325   66.2400   37.7281 C   0  0  0  0  0  0  0  0  0  0  0  0
  110.8192   65.9512   36.7012 C   0  0  0  0  0  0  0  0  0  0  0  0
  111.2924   65.8342   35.3062 C   0  0  0  0  0  0  0  0  0  0  0  0
  108.1014   67.0170   41.2085 C   0  0  0  0  0  0  0  0  0  0  0  0
  107.7806   66.4470   42.5812 C   0  0  0  0  0  0  0  0  0  0  0  0
  109.3430   68.4174   32.4231 C   0  0  0  0  0  0  0  0  0  0  0  0
  109.9837   67.1129   31.9883 C   0  0  0  0  0  0  0  0  0  0  0  0
  108.8153   68.2832   33.8422 C   0  0  0  0  0  0  0  0  0  0  0  0
  111.1039   66.6849   32.9266 C   0  0  0  0  0  0  0  0  0  0  0  0
  109.8653   67.7928   34.8526 C   0  0  1  0  0  0  0  0  0  0  0  0
  111.7401   71.0831   38.0538 C   0  0  0  0  0  0  0  0  0  0  0  0
  111.8095   66.3715   41.4750 N   0  0  0  0  0  0  0  0  0  0  0  0
  110.5549   69.2583   36.7987 N   0  0  0  0  0  0  0  0  0  0  0  0
  111.4866   69.7001   34.7567 N   0  0  0  0  0  0  0  0  0  0  0  0
  110.1549   66.6921   43.1348 N   0  0  0  0  0  0  0  0  0  0  0  0
  110.7396   66.7042   34.3545 N   0  0  0  0  0  0  0  0  0  0  0  0
  108.5803   66.9223   44.7908 O   0  0  0  0  0  0  0  0  0  0  0  0
  112.1332   64.9675   35.0602 O   0  0  0  0  0  0  0  0  0  0  0  0
  111.9781   70.6016   35.7092 O   0  0  0  0  0  0  0  0  0  0  0  0
  109.1220   66.6766   38.6761 H   0  0  0  0  0  0  0  0  0  0  0  0
  113.1823   66.0920   39.9037 H   0  0  0  0  0  0  0  0  0  0  0  0
  112.6970   66.4013   37.5026 H   0  0  0  0  0  0  0  0  0  0  0  0
  109.7501   65.7941   36.9072 H   0  0  0  0  0  0  0  0  0  0  0  0
  107.9848   68.1105   41.2358 H   0  0  0  0  0  0  0  0  0  0  0  0
  107.4113   66.5767   40.4737 H   0  0  0  0  0  0  0  0  0  0  0  0
  107.6710   65.3561   42.4922 H   0  0  0  0  0  0  0  0  0  0  0  0
  106.8518   66.9226   42.9292 H   0  0  0  0  0  0  0  0  0  0  0  0
  110.0919   69.2222   32.3864 H   0  0  0  0  0  0  0  0  0  0  0  0
  108.5093   68.6562   31.7464 H   0  0  0  0  0  0  0  0  0  0  0  0
  109.2139   66.3273   31.9732 H   0  0  0  0  0  0  0  0  0  0  0  0
  110.4180   67.2650   30.9892 H   0  0  0  0  0  0  0  0  0  0  0  0
  108.4513   69.2677   34.1711 H   0  0  0  0  0  0  0  0  0  0  0  0
  108.0181   67.5257   33.8165 H   0  0  0  0  0  0  0  0  0  0  0  0
  111.4029   65.6601   32.6612 H   0  0  0  0  0  0  0  0  0  0  0  0
  111.9174   67.4142   32.7992 H   0  0  0  0  0  0  0  0  0  0  0  0
  109.2808   67.3275   35.6599 H   0  0  0  0  0  0  0  0  0  0  0  0
  111.4942   70.5307   38.9727 H   0  0  0  0  0  0  0  0  0  0  0  0
  112.8187   71.2977   38.0325 H   0  0  0  0  0  0  0  0  0  0  0  0
  111.1777   72.0282   38.0325 H   0  0  0  0  0  0  0  0  0  0  0  0
  110.9183   66.7480   43.8240 H   0  0  0  0  0  0  0  0  0  0  0  0
  1  3  2  0
  1  4  1  0
  2  3  1  0
  2 20  2  0
  3  9  1  0
  4  5  2  0
  4 12  1  0
  5 20  1  0
  5 23  1  0
  6 18  1  0
  6 21  1  0
  6 22  2  0
  7 19  1  0
  7 21  2  0
  7 27  1  0
  8 13  1  0
  8 23  1  0
  8 25  2  0
  9 10  2  0
 10 11  1  0
 11 24  1  0
 11 26  2  0
 12 13  1  0
 14 15  1  0
 14 16  1  0
 15 17  1  0
 16 18  1  0
 17 24  1  0
 18 24  1  0
 22 27  1  0
  1 28  1  0
  2 29  1  0
  9 30  1  0
 10 31  1  0
 12 32  1  0
 12 33  1  0
 13 34  1  0
 13 35  1  0
 14 36  1  0
 14 37  1  0
 15 38  1  0
 15 39  1  0
 16 40  1  0
 16 41  1  0
 17 42  1  0
 17 43  1  0
 18 44  1  1
 19 45  1  0
 19 46  1  0
 19 47  1  0
 23 48  1  0
M  END
>  <Name>  (102) 
CHEMBL3676406

>  <Comment>  (102) 
 Schrodinger Suite 2021-4.

>  <s_m_entry_id>  (102) 
1460

>  <s_m_Source_Path>  (102) 
C:\Users\vinicius\Desktop

>  <s_m_Source_File>  (102) 
Ligands_Saureus_failomega.smi

>  <i_m_Source_File_Index>  (102) 
19

>  <r_lp_tautomer_probability>  (102) 
1

>  <r_epik_Ionization_Penalty>  (102) 
0.0002

>  <r_epik_State_Penalty>  (102) 
0

>  <i_epik_Tot_Q>  (102) 
0

>  <i_f3d_flags>  (102) 
0

>  <s_m_job_name>  (102) 
Saureus_fail

>  <class_value>  (102) 
0

>  <FRED Chemgauss4 score>  (102) 
-12.653148

>  <Set>  (102) 
training

>  <HBA count>  (102) 
6

>  <HBD count>  (102) 
1

>  <ExactMolWt>  (102) 
367.1644395320006

>  <NumRotatableBounds>  (102) 
4

>  <FractionCsp3>  (102) 
0.42105263157894735

>  <TPSA>  (102) 
101.22000000000001

>  <LogP_WildmanCrippen>  (102) 
2.4247199999999998

>  <General_Cluster>  (102) 
5

>  <Biological_Cluster>  (102) 
2

>  <Physicochemical_Cluster>  (102) 
4

>  <Structural_Cluster>  (102) 
2

$$$$
Zheng_3
     RDKit          3D

 59 63  0  0  1  0  0  0  0  0999 V2000
  109.8101   67.8717   34.0127 C   0  0  0  0  0  0  0  0  0  0  0  0
  109.9198   69.2168   34.4175 C   0  0  0  0  0  0  0  0  0  0  0  0
  110.1616   66.8279   34.8724 C   0  0  0  0  0  0  0  0  0  0  0  0
  110.3772   69.5523   35.6950 C   0  0  0  0  0  0  0  0  0  0  0  0
  110.0149   68.9558   43.8525 C   0  0  0  0  0  0  0  0  0  0  0  0
  108.1323   67.9105   44.3661 C   0  0  0  0  0  0  0  0  0  0  0  0
  110.6048   67.1637   36.1349 C   0  0  0  0  0  0  0  0  0  0  0  0
  110.7122   68.5182   36.5468 C   0  0  0  0  0  0  0  0  0  0  0  0
  109.9031   67.8641   43.0385 C   0  0  0  0  0  0  0  0  0  0  0  0
  110.6860   64.9644   37.6086 C   0  0  0  0  0  0  0  0  0  0  0  0
  110.9530   64.5180   38.8519 C   0  0  0  0  0  0  0  0  0  0  0  0
  110.5407   67.3611   40.7243 C   0  0  0  0  0  0  0  0  0  0  0  0
  111.6126   65.4322   39.8728 C   0  0  0  0  0  0  0  0  0  0  0  0
  109.1992   67.6790   40.1483 C   0  0  0  0  0  0  0  0  0  0  0  0
  113.8177   67.0958   39.1180 C   0  0  0  0  0  0  0  0  0  0  0  0
  110.8294   67.4524   42.0233 C   0  0  0  0  0  0  0  0  0  0  0  0
  113.3767   66.1048   38.3332 C   0  0  0  0  0  0  0  0  0  0  0  0
  111.1545   66.3280   37.2560 C   0  0  2  0  0  0  0  0  0  0  0  0
  110.7560   67.2746   38.4321 C   0  0  2  0  0  0  0  0  0  0  0  0
  112.9605   64.9739   36.1661 C   0  0  0  0  0  0  0  0  0  0  0  0
  113.0972   67.4689   36.1750 C   0  0  0  0  0  0  0  0  0  0  0  0
  111.3567   62.2716   38.4414 C   0  0  0  0  0  0  0  0  0  0  0  0
  111.9196   70.7405   38.3759 C   0  0  0  0  0  0  0  0  0  0  0  0
  112.6922   66.2363   36.9901 C   0  0  0  0  0  0  0  0  0  0  0  0
  108.7294   67.2356   43.3785 N   0  0  0  0  0  0  0  0  0  0  0  0
  108.9055   68.9599   44.6633 N   0  0  0  0  0  4  0  0  0  0  0  0
  109.3372   67.4014   38.7839 N   0  0  0  0  0  0  0  0  0  0  0  0
  111.1545   68.6020   37.9089 N   0  0  0  0  0  0  0  0  0  0  0  0
  111.3286   66.8163   39.7081 N   0  0  0  0  0  0  0  0  0  0  0  0
  112.2077   64.9426   40.8315 O   0  0  0  0  0  0  0  0  0  0  0  0
  108.2141   68.0531   40.7570 O   0  0  0  0  0  0  0  0  0  0  0  0
  110.6728   63.2218   39.2236 O   0  0  0  0  0  0  0  0  0  0  0  0
  110.9409   69.7247   38.6844 O   0  0  0  0  0  0  0  0  0  0  0  0
  109.4415   67.6394   33.0027 H   0  0  0  0  0  0  0  0  0  0  0  0
  109.6406   70.0168   33.7160 H   0  0  0  0  0  0  0  0  0  0  0  0
  110.0877   65.7775   34.5544 H   0  0  0  0  0  0  0  0  0  0  0  0
  110.4671   70.6022   36.0105 H   0  0  0  0  0  0  0  0  0  0  0  0
  110.8345   69.6895   43.8577 H   0  0  0  0  0  0  0  0  0  0  0  0
  107.1780   67.6497   44.8469 H   0  0  0  0  0  0  0  0  0  0  0  0
  110.1418   64.3421   36.8830 H   0  0  0  0  0  0  0  0  0  0  0  0
  114.3017   66.8632   40.0780 H   0  0  0  0  0  0  0  0  0  0  0  0
  113.6961   68.1426   38.8028 H   0  0  0  0  0  0  0  0  0  0  0  0
  111.8509   67.1935   42.3388 H   0  0  0  0  0  0  0  0  0  0  0  0
  113.5289   65.0812   38.7062 H   0  0  0  0  0  0  0  0  0  0  0  0
  113.1408   64.1257   36.8429 H   0  0  0  0  0  0  0  0  0  0  0  0
  112.0882   64.7578   35.5317 H   0  0  0  0  0  0  0  0  0  0  0  0
  113.8453   65.1313   35.5317 H   0  0  0  0  0  0  0  0  0  0  0  0
  113.3663   68.2880   36.8581 H   0  0  0  0  0  0  0  0  0  0  0  0
  113.9613   67.2214   35.5409 H   0  0  0  0  0  0  0  0  0  0  0  0
  112.2547   67.7822   35.5409 H   0  0  0  0  0  0  0  0  0  0  0  0
  111.8714   61.5565   39.1000 H   0  0  0  0  0  0  0  0  0  0  0  0
  110.6376   61.7333   37.8065 H   0  0  0  0  0  0  0  0  0  0  0  0
  112.0955   62.7826   37.8065 H   0  0  0  0  0  0  0  0  0  0  0  0
  112.3219   71.1580   39.3107 H   0  0  0  0  0  0  0  0  0  0  0  0
  112.7380   70.2955   37.7910 H   0  0  0  0  0  0  0  0  0  0  0  0
  111.4445   71.5418   37.7910 H   0  0  0  0  0  0  0  0  0  0  0  0
  108.3659   66.3773   42.9403 H   0  0  0  0  0  0  0  0  0  0  0  0
  108.7012   69.6628   45.3880 H   0  0  0  0  0  0  0  0  0  0  0  0
  108.5550   67.3005   38.1215 H   0  0  0  0  0  0  0  0  0  0  0  0
  1  2  2  0
  1  3  1  0
  2  4  1  0
  3  7  2  0
  4  8  2  0
  5  9  2  0
  5 26  1  0
  6 25  1  0
  6 26  2  0
  7  8  1  0
  7 18  1  0
  8 28  1  0
  9 16  1  0
  9 25  1  0
 10 11  2  0
 10 18  1  0
 11 13  1  0
 11 32  1  0
 12 14  1  0
 12 16  2  0
 12 29  1  0
 13 29  1  0
 13 30  2  0
 14 27  1  0
 14 31  2  0
 15 17  2  3
 17 24  1  0
 18 19  1  0
 18 24  1  6
 19 27  1  1
 19 28  1  0
 19 29  1  0
 20 24  1  0
 21 24  1  0
 22 32  1  0
 23 33  1  0
 28 33  1  0
  1 34  1  0
  2 35  1  0
  3 36  1  0
  4 37  1  0
  5 38  1  0
  6 39  1  0
 10 40  1  0
 15 41  1  0
 15 42  1  0
 16 43  1  0
 17 44  1  0
 20 45  1  0
 20 46  1  0
 20 47  1  0
 21 48  1  0
 21 49  1  0
 21 50  1  0
 22 51  1  0
 22 52  1  0
 22 53  1  0
 23 54  1  0
 23 55  1  0
 23 56  1  0
 25 57  1  0
 26 58  1  0
 27 59  1  0
M  CHG  1  26   1
M  END
>  <Name>  (103) 
Zheng_3

>  <Comment>  (103) 
 Schrodinger Suite 2021-4.

>  <s_m_entry_id>  (103) 
1396

>  <class_value>  (103) 
0

>  <s_m_Source_Path>  (103) 
C:\Users\vinicius\Desktop

>  <s_m_Source_File>  (103) 
Ligands_Saureus_o.sdf

>  <i_m_Source_File_Index>  (103) 
230

>  <r_epik_Ionization_Penalty>  (103) 
1.7402

>  <r_epik_State_Penalty>  (103) 
1.6835

>  <i_epik_Tot_Q>  (103) 
1

>  <i_f3d_flags>  (103) 
0

>  <s_m_job_name>  (103) 
Saureus_o

>  <FRED Chemgauss4 score>  (103) 
-7.454237

>  <Set>  (103) 
training

>  <HBA count>  (103) 
5

>  <HBD count>  (103) 
2

>  <ExactMolWt>  (103) 
448.19793073209075

>  <NumRotatableBounds>  (103) 
9

>  <FractionCsp3>  (103) 
0.2916666666666667

>  <TPSA>  (103) 
101.04000000000002

>  <LogP_WildmanCrippen>  (103) 
1.8573999999999997

>  <General_Cluster>  (103) 
5

>  <Biological_Cluster>  (103) 
2

>  <Physicochemical_Cluster>  (103) 
4

>  <Structural_Cluster>  (103) 
3

$$$$
CHEMBL3322712
     RDKit          3D

 51 54  0  0  0  0  0  0  0  0999 V2000
  112.9475   72.1038   32.5209 C   0  0  0  0  0  0  0  0  0  0  0  0
  111.2381   72.8931   34.0348 C   0  0  0  0  0  0  0  0  0  0  0  0
  112.1934   70.9582   32.2666 C   0  0  0  0  0  0  0  0  0  0  0  0
  110.4840   71.7475   33.7806 C   0  0  0  0  0  0  0  0  0  0  0  0
  109.9714   66.0596   39.5499 C   0  0  0  0  0  0  0  0  0  0  0  0
  112.2669   66.0597   40.1603 C   0  0  0  0  0  0  0  0  0  0  0  0
  111.3002   65.8771   39.1873 C   0  0  0  0  0  0  0  0  0  0  0  0
  109.6497   66.3962   40.8656 C   0  0  0  0  0  0  0  0  0  0  0  0
  112.4699   73.0712   33.4050 C   0  0  0  0  0  0  0  0  0  0  0  0
  110.9617   70.7801   32.8964 C   0  0  0  0  0  0  0  0  0  0  0  0
  110.6946   66.5519   41.7757 C   0  0  0  0  0  0  0  0  0  0  0  0
  109.1204   66.9603   43.6305 C   0  0  0  0  0  0  0  0  0  0  0  0
  111.6640   65.5210   37.8280 C   0  0  0  0  0  0  0  0  0  0  0  0
  110.8918   65.6966   36.7297 C   0  0  0  0  0  0  0  0  0  0  0  0
  111.3022   65.3092   35.3678 C   0  0  0  0  0  0  0  0  0  0  0  0
  108.2398   66.6953   41.2762 C   0  0  0  0  0  0  0  0  0  0  0  0
  108.0295   66.3856   42.7500 C   0  0  0  0  0  0  0  0  0  0  0  0
  109.8829   67.2102   34.3184 C   0  0  0  0  0  0  0  0  0  0  0  0
  110.9419   65.9586   32.9264 C   0  0  0  0  0  0  0  0  0  0  0  0
  110.1451   67.2684   32.8032 C   0  0  0  0  0  0  0  0  0  0  0  0
  113.2757   74.2963   33.6765 C   0  0  0  0  0  0  0  0  0  0  0  0
  110.9356   68.4731   32.3197 C   0  0  0  0  0  0  0  0  0  0  0  0
  111.9977   66.3994   41.4407 N   0  0  0  0  0  0  0  0  0  0  0  0
  110.3957   66.9154   43.1027 N   0  0  0  0  0  0  0  0  0  0  0  0
  110.7779   66.0711   34.3632 N   0  0  0  0  0  0  0  0  0  0  0  0
  108.8809   67.3485   44.7738 O   0  0  0  0  0  0  0  0  0  0  0  0
  112.0638   64.3593   35.2043 O   0  0  0  0  0  0  0  0  0  0  0  0
  110.2197   69.6541   32.6453 O   0  0  0  0  0  0  0  0  0  0  0  0
  113.9189   72.2443   32.0242 H   0  0  0  0  0  0  0  0  0  0  0  0
  110.8614   73.6561   34.7319 H   0  0  0  0  0  0  0  0  0  0  0  0
  112.5701   70.1953   31.5694 H   0  0  0  0  0  0  0  0  0  0  0  0
  109.5127   71.6069   34.2774 H   0  0  0  0  0  0  0  0  0  0  0  0
  109.1744   65.9390   38.8014 H   0  0  0  0  0  0  0  0  0  0  0  0
  113.3198   65.9198   39.8741 H   0  0  0  0  0  0  0  0  0  0  0  0
  112.6550   65.0683   37.6767 H   0  0  0  0  0  0  0  0  0  0  0  0
  109.9006   66.1550   36.8613 H   0  0  0  0  0  0  0  0  0  0  0  0
  108.0305   67.7604   41.0980 H   0  0  0  0  0  0  0  0  0  0  0  0
  107.5590   66.0670   40.6832 H   0  0  0  0  0  0  0  0  0  0  0  0
  108.0107   65.2936   42.8808 H   0  0  0  0  0  0  0  0  0  0  0  0
  107.0791   66.8486   43.0541 H   0  0  0  0  0  0  0  0  0  0  0  0
  110.2315   68.0902   34.8788 H   0  0  0  0  0  0  0  0  0  0  0  0
  108.8633   67.1623   34.7284 H   0  0  0  0  0  0  0  0  0  0  0  0
  110.4551   65.0810   32.4760 H   0  0  0  0  0  0  0  0  0  0  0  0
  111.9326   65.8374   32.4640 H   0  0  0  0  0  0  0  0  0  0  0  0
  109.3142   67.3611   32.0883 H   0  0  0  0  0  0  0  0  0  0  0  0
  113.3701   74.4398   34.7630 H   0  0  0  0  0  0  0  0  0  0  0  0
  114.2761   74.1828   33.2334 H   0  0  0  0  0  0  0  0  0  0  0  0
  112.7753   75.1700   33.2334 H   0  0  0  0  0  0  0  0  0  0  0  0
  111.9195   68.4905   32.8113 H   0  0  0  0  0  0  0  0  0  0  0  0
  111.0782   68.4123   31.2307 H   0  0  0  0  0  0  0  0  0  0  0  0
  111.1808   67.1645   43.7212 H   0  0  0  0  0  0  0  0  0  0  0  0
  1  3  2  0
  1  9  1  0
  2  4  1  0
  2  9  2  0
  3 10  1  0
  4 10  2  0
  5  7  2  0
  5  8  1  0
  6  7  1  0
  6 23  2  0
  7 13  1  0
  8 11  2  0
  8 16  1  0
  9 21  1  0
 10 28  1  0
 11 23  1  0
 11 24  1  0
 12 17  1  0
 12 24  1  0
 12 26  2  0
 13 14  2  0
 14 15  1  0
 15 25  1  0
 15 27  2  0
 16 17  1  0
 18 20  1  0
 18 25  1  0
 19 20  1  0
 19 25  1  0
 20 22  1  0
 22 28  1  0
  1 29  1  0
  2 30  1  0
  3 31  1  0
  4 32  1  0
  5 33  1  0
  6 34  1  0
 13 35  1  0
 14 36  1  0
 16 37  1  0
 16 38  1  0
 17 39  1  0
 17 40  1  0
 18 41  1  0
 18 42  1  0
 19 43  1  0
 19 44  1  0
 20 45  1  0
 21 46  1  0
 21 47  1  0
 21 48  1  0
 22 49  1  0
 22 50  1  0
 24 51  1  0
M  END
>  <Name>  (104) 
CHEMBL3322712

>  <Comment>  (104) 
 Schrodinger Suite 2021-4.

>  <s_m_entry_id>  (104) 
1195

>  <class_value>  (104) 
1

>  <s_m_Source_Path>  (104) 
C:\Users\vinicius\Desktop

>  <s_m_Source_File>  (104) 
Ligands_Saureus_o.sdf

>  <i_m_Source_File_Index>  (104) 
96

>  <r_lp_tautomer_probability>  (104) 
1

>  <r_epik_Ionization_Penalty>  (104) 
0.0002

>  <r_epik_State_Penalty>  (104) 
0

>  <i_epik_Tot_Q>  (104) 
0

>  <i_f3d_flags>  (104) 
0

>  <s_m_job_name>  (104) 
Saureus_o

>  <FRED Chemgauss4 score>  (104) 
-13.664974

>  <Set>  (104) 
training

>  <HBA count>  (104) 
4

>  <HBD count>  (104) 
1

>  <ExactMolWt>  (104) 
377.17394159600065

>  <NumRotatableBounds>  (104) 
6

>  <FractionCsp3>  (104) 
0.3181818181818182

>  <TPSA>  (104) 
71.53

>  <LogP_WildmanCrippen>  (104) 
2.8253200000000005

>  <General_Cluster>  (104) 
1

>  <Biological_Cluster>  (104) 
1

>  <Physicochemical_Cluster>  (104) 
1

>  <Structural_Cluster>  (104) 
2

$$$$
CHEMBL63871
     RDKit          3D

 30 32  0  0  1  0  0  0  0  0999 V2000
  111.8981   72.6579   33.2184 C   0  0  0  0  0  0  0  0  0  0  0  0
  111.8231   71.8861   32.0590 C   0  0  0  0  0  0  0  0  0  0  0  0
  111.5164   72.1134   34.4446 C   0  0  0  0  0  0  0  0  0  0  0  0
  111.3663   70.5698   32.1257 C   0  0  0  0  0  0  0  0  0  0  0  0
  111.0596   70.7972   34.5113 C   0  0  0  0  0  0  0  0  0  0  0  0
  111.0980   64.9769   37.3247 C   0  0  0  0  0  0  0  0  0  0  0  0
  111.6338   64.6322   38.5460 C   0  0  0  0  0  0  0  0  0  0  0  0
  110.9546   66.9950   38.4689 C   0  0  0  0  0  0  0  0  0  0  0  0
  110.7047   66.3456   37.2798 C   0  0  0  0  0  0  0  0  0  0  0  0
  110.9845   70.0253   33.3519 C   0  0  0  0  0  0  0  0  0  0  0  0
  110.0990   67.0215   36.1235 C   0  0  0  0  0  0  0  0  0  0  0  0
  108.7079   67.1089   34.4268 C   0  0  0  0  0  0  0  0  0  0  0  0
  109.4870   68.4047   34.5539 C   0  0  2  0  0  0  0  0  0  0  0  0
  110.4905   68.6027   33.4247 C   0  0  0  0  0  0  0  0  0  0  0  0
  110.2196   68.2761   35.8233 N   0  0  0  0  0  0  0  0  0  0  0  0
  109.3530   66.2198   35.3273 O   0  0  0  0  0  0  0  0  0  0  0  0
  111.6610   65.9558   39.6322 S   0  0  0  0  0  0  0  0  0  0  0  0
  112.2582   73.6959   33.1658 H   0  0  0  0  0  0  0  0  0  0  0  0
  112.1242   72.3155   31.0920 H   0  0  0  0  0  0  0  0  0  0  0  0
  111.5756   72.7220   35.3590 H   0  0  0  0  0  0  0  0  0  0  0  0
  111.3072   69.9612   31.2113 H   0  0  0  0  0  0  0  0  0  0  0  0
  110.7586   70.3679   35.4783 H   0  0  0  0  0  0  0  0  0  0  0  0
  110.9868   64.2776   36.4829 H   0  0  0  0  0  0  0  0  0  0  0  0
  112.0009   63.6254   38.7943 H   0  0  0  0  0  0  0  0  0  0  0  0
  110.7272   68.0559   38.6497 H   0  0  0  0  0  0  0  0  0  0  0  0
  107.6561   67.2573   34.7127 H   0  0  0  0  0  0  0  0  0  0  0  0
  108.6958   66.7260   33.3957 H   0  0  0  0  0  0  0  0  0  0  0  0
  108.8042   69.2662   34.5137 H   0  0  0  0  0  0  0  0  0  0  0  0
  110.0072   68.3452   32.4707 H   0  0  0  0  0  0  0  0  0  0  0  0
  111.3555   67.9520   33.6205 H   0  0  0  0  0  0  0  0  0  0  0  0
  1  2  2  0
  1  3  1  0
  2  4  1  0
  3  5  2  0
  4 10  2  0
  5 10  1  0
  6  7  2  0
  6  9  1  0
  7 17  1  0
  8  9  2  0
  8 17  1  0
  9 11  1  0
 10 14  1  0
 11 15  2  0
 11 16  1  0
 12 13  1  0
 12 16  1  0
 13 14  1  0
 13 15  1  0
  1 18  1  0
  2 19  1  0
  3 20  1  0
  4 21  1  0
  5 22  1  0
  6 23  1  0
  7 24  1  0
  8 25  1  0
 12 26  1  0
 12 27  1  0
 13 28  1  1
 14 29  1  0
 14 30  1  0
M  END
>  <Name>  (105) 
CHEMBL63871

>  <Comment>  (105) 
 Schrodinger Suite 2021-4.

>  <s_m_entry_id>  (105) 
1303

>  <class_value>  (105) 
0

>  <s_m_Source_Path>  (105) 
C:\Users\vinicius\Desktop

>  <s_m_Source_File>  (105) 
Ligands_Saureus_o.sdf

>  <i_m_Source_File_Index>  (105) 
180

>  <r_epik_Ionization_Penalty>  (105) 
0.0014

>  <r_epik_State_Penalty>  (105) 
0.0009

>  <i_epik_Tot_Q>  (105) 
0

>  <i_f3d_flags>  (105) 
0

>  <s_m_job_name>  (105) 
Saureus_o

>  <FRED Chemgauss4 score>  (105) 
-12.269113

>  <Set>  (105) 
training

>  <HBA count>  (105) 
3

>  <HBD count>  (105) 
0

>  <ExactMolWt>  (105) 
243.071785036

>  <NumRotatableBounds>  (105) 
3

>  <FractionCsp3>  (105) 
0.21428571428571427

>  <TPSA>  (105) 
21.59

>  <LogP_WildmanCrippen>  (105) 
3.1362000000000014

>  <General_Cluster>  (105) 
4

>  <Biological_Cluster>  (105) 
2

>  <Physicochemical_Cluster>  (105) 
3

>  <Structural_Cluster>  (105) 
1

$$$$
CHEMBL73455
     RDKit          3D

 58 62  0  0  0  0  0  0  0  0999 V2000
  108.4554   62.5625   44.5142 C   0  0  0  0  0  0  0  0  0  0  0  0
  107.3548   63.4160   44.5476 C   0  0  0  0  0  0  0  0  0  0  0  0
  109.4735   62.7431   43.5712 C   0  0  0  0  0  0  0  0  0  0  0  0
  106.4854   68.1373   43.2005 C   0  0  0  0  0  0  0  0  0  0  0  0
  108.7911   68.4514   42.5510 C   0  0  0  0  0  0  0  0  0  0  0  0
  107.2358   64.4744   43.6425 C   0  0  0  0  0  0  0  0  0  0  0  0
  106.6017   69.1813   44.1182 C   0  0  0  0  0  0  0  0  0  0  0  0
  108.9075   69.4954   43.4686 C   0  0  0  0  0  0  0  0  0  0  0  0
  111.5968   67.9861   37.4596 C   0  0  0  0  0  0  0  0  0  0  0  0
  110.2782   66.5305   36.0526 C   0  0  0  0  0  0  0  0  0  0  0  0
  109.3774   63.8036   42.6479 C   0  0  0  0  0  0  0  0  0  0  0  0
  111.1390   66.7089   37.1356 C   0  0  0  0  0  0  0  0  0  0  0  0
  110.1941   64.2751   41.5844 C   0  0  0  0  0  0  0  0  0  0  0  0
  107.5801   67.7723   42.4169 C   0  0  0  0  0  0  0  0  0  0  0  0
  111.1937   69.0848   36.7006 C   0  0  0  0  0  0  0  0  0  0  0  0
  109.8751   67.6293   35.2936 C   0  0  0  0  0  0  0  0  0  0  0  0
  108.2602   64.6445   42.7041 C   0  0  0  0  0  0  0  0  0  0  0  0
  107.8127   69.8604   44.2523 C   0  0  0  0  0  0  0  0  0  0  0  0
  110.3329   68.9064   35.6177 C   0  0  0  0  0  0  0  0  0  0  0  0
  109.5639   65.3672   41.0264 C   0  0  0  0  0  0  0  0  0  0  0  0
  111.5640   65.5504   37.9359 C   0  0  0  0  0  0  0  0  0  0  0  0
  111.4921   63.7771   41.0536 C   0  0  0  0  0  0  0  0  0  0  0  0
  110.0528   66.1897   39.8893 C   0  0  0  0  0  0  0  0  0  0  0  0
  112.1847   64.8867   40.2438 C   0  0  0  0  0  0  0  0  0  0  0  0
  111.6944   70.4442   37.0631 C   0  0  0  0  0  0  0  0  0  0  0  0
  108.9532   67.4182   34.1380 C   0  0  0  0  0  0  0  0  0  0  0  0
  107.4547   66.6464   41.4264 C   0  0  0  0  0  0  0  0  0  0  0  0
  108.4011   65.5874   41.7074 N   0  0  0  0  0  0  0  0  0  0  0  0
  111.2512   65.5390   39.3003 N   0  0  0  0  0  0  0  0  0  0  0  0
  112.1776   64.6686   37.3364 O   0  0  0  0  0  0  0  0  0  0  0  0
  107.9256   70.8799   45.1469 O   0  0  0  0  0  0  0  0  0  0  0  0
  109.9388   69.9809   34.8755 O   0  0  0  0  0  0  0  0  0  0  0  0
  108.5250   61.7368   45.2377 H   0  0  0  0  0  0  0  0  0  0  0  0
  106.5670   63.2544   45.2981 H   0  0  0  0  0  0  0  0  0  0  0  0
  110.3392   62.0648   43.5508 H   0  0  0  0  0  0  0  0  0  0  0  0
  105.5304   67.6018   43.0947 H   0  0  0  0  0  0  0  0  0  0  0  0
  109.6544   68.1636   41.9330 H   0  0  0  0  0  0  0  0  0  0  0  0
  106.3678   65.1497   43.6668 H   0  0  0  0  0  0  0  0  0  0  0  0
  105.7384   69.4691   44.7362 H   0  0  0  0  0  0  0  0  0  0  0  0
  109.8625   70.0309   43.5743 H   0  0  0  0  0  0  0  0  0  0  0  0
  112.2757   68.1268   38.3136 H   0  0  0  0  0  0  0  0  0  0  0  0
  109.9172   65.5233   35.7971 H   0  0  0  0  0  0  0  0  0  0  0  0
  112.1390   63.4789   41.8918 H   0  0  0  0  0  0  0  0  0  0  0  0
  111.3089   62.9114   40.4002 H   0  0  0  0  0  0  0  0  0  0  0  0
  109.2644   66.2696   39.1264 H   0  0  0  0  0  0  0  0  0  0  0  0
  110.3147   67.1969   40.2455 H   0  0  0  0  0  0  0  0  0  0  0  0
  112.5761   65.6440   40.9390 H   0  0  0  0  0  0  0  0  0  0  0  0
  112.9976   64.4293   39.6608 H   0  0  0  0  0  0  0  0  0  0  0  0
  111.7303   70.5417   38.1582 H   0  0  0  0  0  0  0  0  0  0  0  0
  112.7036   70.5857   36.6491 H   0  0  0  0  0  0  0  0  0  0  0  0
  111.0181   71.2065   36.6491 H   0  0  0  0  0  0  0  0  0  0  0  0
  107.9445   67.1872   34.5111 H   0  0  0  0  0  0  0  0  0  0  0  0
  108.9175   68.3314   33.5258 H   0  0  0  0  0  0  0  0  0  0  0  0
  109.3185   66.5804   33.5258 H   0  0  0  0  0  0  0  0  0  0  0  0
  106.4348   66.2375   41.4767 H   0  0  0  0  0  0  0  0  0  0  0  0
  107.6673   67.0432   40.4227 H   0  0  0  0  0  0  0  0  0  0  0  0
  108.7850   71.3620   45.2422 H   0  0  0  0  0  0  0  0  0  0  0  0
  109.3278   69.8543   34.1069 H   0  0  0  0  0  0  0  0  0  0  0  0
  1  2  2  0
  1  3  1  0
  2  6  1  0
  3 11  2  0
  4  7  2  0
  4 14  1  0
  5  8  1  0
  5 14  2  0
  6 17  2  0
  7 18  1  0
  8 18  2  0
  9 12  2  0
  9 15  1  0
 10 12  1  0
 10 16  2  0
 11 13  1  0
 11 17  1  0
 12 21  1  0
 13 20  2  0
 13 22  1  0
 14 27  1  0
 15 19  2  0
 15 25  1  0
 16 19  1  0
 16 26  1  0
 17 28  1  0
 18 31  1  0
 19 32  1  0
 20 23  1  0
 20 28  1  0
 21 29  1  0
 21 30  2  0
 22 24  1  0
 23 29  1  0
 24 29  1  0
 27 28  1  0
  1 33  1  0
  2 34  1  0
  3 35  1  0
  4 36  1  0
  5 37  1  0
  6 38  1  0
  7 39  1  0
  8 40  1  0
  9 41  1  0
 10 42  1  0
 22 43  1  0
 22 44  1  0
 23 45  1  0
 23 46  1  0
 24 47  1  0
 24 48  1  0
 25 49  1  0
 25 50  1  0
 25 51  1  0
 26 52  1  0
 26 53  1  0
 26 54  1  0
 27 55  1  0
 27 56  1  0
 31 57  1  0
 32 58  1  0
M  END
>  <Name>  (106) 
CHEMBL73455

>  <Comment>  (106) 
 Schrodinger Suite 2021-4.

>  <s_m_entry_id>  (106) 
1230

>  <class_value>  (106) 
0

>  <s_m_Source_Path>  (106) 
C:\Users\vinicius\Desktop

>  <s_m_Source_File>  (106) 
Ligands_Saureus_o.sdf

>  <i_m_Source_File_Index>  (106) 
123

>  <r_lp_tautomer_probability>  (106) 
1

>  <r_epik_Ionization_Penalty>  (106) 
0.0029

>  <r_epik_State_Penalty>  (106) 
0

>  <i_epik_Tot_Q>  (106) 
0

>  <i_f3d_flags>  (106) 
0

>  <s_m_job_name>  (106) 
Saureus_o

>  <FRED Chemgauss4 score>  (106) 
-11.343053

>  <Set>  (106) 
training

>  <HBA count>  (106) 
4

>  <HBD count>  (106) 
2

>  <ExactMolWt>  (106) 
426.1943426920007

>  <NumRotatableBounds>  (106) 
7

>  <FractionCsp3>  (106) 
0.2222222222222222

>  <TPSA>  (106) 
65.7

>  <LogP_WildmanCrippen>  (106) 
4.916140000000006

>  <General_Cluster>  (106) 
3

>  <Biological_Cluster>  (106) 
2

>  <Physicochemical_Cluster>  (106) 
1

>  <Structural_Cluster>  (106) 
4

$$$$
CHEMBL3623404
     RDKit          3D

 38 39  0  0  0  0  0  0  0  0999 V2000
  110.5215   66.2386   36.4526 C   0  0  0  0  0  0  0  0  0  0  0  0
  109.8416   66.2941   35.2359 C   0  0  0  0  0  0  0  0  0  0  0  0
  110.3391   68.6522   35.0655 C   0  0  0  0  0  0  0  0  0  0  0  0
  111.0189   68.5967   36.2823 C   0  0  0  0  0  0  0  0  0  0  0  0
  111.1101   67.3899   36.9758 C   0  0  0  0  0  0  0  0  0  0  0  0
  109.7504   67.5008   34.5424 C   0  0  0  0  0  0  0  0  0  0  0  0
  110.6192   65.3245   41.1753 C   0  0  0  0  0  0  0  0  0  0  0  0
  109.9711   67.5854   39.6957 C   0  0  0  0  0  0  0  0  0  0  0  0
  111.0471   66.9155   39.2654 C   0  0  0  0  0  0  0  0  0  0  0  0
  109.5728   66.0993   41.4781 C   0  0  0  0  0  0  0  0  0  0  0  0
  111.4519   65.6968   40.0076 C   0  0  0  0  0  0  0  0  0  0  0  0
  108.6981   65.8074   42.6111 C   0  0  0  0  0  0  0  0  0  0  0  0
  108.0414   64.6414   42.6354 C   0  0  0  0  0  0  0  0  0  0  0  0
  111.6410   69.8392   36.8286 C   0  0  0  0  0  0  0  0  0  0  0  0
  107.6258   62.9669   44.4320 C   0  0  0  0  0  0  0  0  0  0  0  0
  105.6986   64.0269   43.2167 C   0  0  0  0  0  0  0  0  0  0  0  0
  107.1139   64.2374   43.7540 C   0  0  0  0  0  0  0  0  0  0  0  0
  112.4242   65.0277   39.6783 O   0  0  0  0  0  0  0  0  0  0  0  0
  109.2047   67.2301   40.7804 O   0  0  0  0  0  0  0  0  0  0  0  0
  111.7730   67.3183   38.1705 O   0  0  0  0  0  0  0  0  0  0  0  0
  108.9119   67.5700   33.0413 Cl  0  0  0  0  0  0  0  0  0  0  0  0
  110.5935   65.2869   36.9995 H   0  0  0  0  0  0  0  0  0  0  0  0
  109.3774   65.3862   34.8234 H   0  0  0  0  0  0  0  0  0  0  0  0
  110.2673   69.6038   34.5185 H   0  0  0  0  0  0  0  0  0  0  0  0
  110.8557   64.4344   41.7769 H   0  0  0  0  0  0  0  0  0  0  0  0
  109.6780   68.4881   39.1396 H   0  0  0  0  0  0  0  0  0  0  0  0
  108.5813   66.5329   43.4296 H   0  0  0  0  0  0  0  0  0  0  0  0
  108.1853   63.9430   41.7978 H   0  0  0  0  0  0  0  0  0  0  0  0
  111.6239   69.8050   37.9279 H   0  0  0  0  0  0  0  0  0  0  0  0
  112.6818   69.9119   36.4802 H   0  0  0  0  0  0  0  0  0  0  0  0
  111.0756   70.7161   36.4802 H   0  0  0  0  0  0  0  0  0  0  0  0
  107.5767   63.0888   45.5241 H   0  0  0  0  0  0  0  0  0  0  0  0
  107.0015   62.1131   44.1299 H   0  0  0  0  0  0  0  0  0  0  0  0
  108.6676   62.7844   44.1299 H   0  0  0  0  0  0  0  0  0  0  0  0
  104.9985   63.9228   44.0587 H   0  0  0  0  0  0  0  0  0  0  0  0
  105.4072   64.8916   42.6024 H   0  0  0  0  0  0  0  0  0  0  0  0
  105.6715   63.1148   42.6024 H   0  0  0  0  0  0  0  0  0  0  0  0
  107.0864   65.0441   44.5014 H   0  0  0  0  0  0  0  0  0  0  0  0
  1  2  2  0
  1  5  1  0
  2  6  1  0
  3  4  1  0
  3  6  2  0
  4  5  2  0
  4 14  1  0
  5 20  1  0
  6 21  1  0
  7 10  2  0
  7 11  1  0
  8  9  2  0
  8 19  1  0
  9 11  1  0
  9 20  1  0
 10 12  1  0
 10 19  1  0
 11 18  2  0
 12 13  2  0
 13 17  1  0
 15 17  1  0
 16 17  1  0
  1 22  1  0
  2 23  1  0
  3 24  1  0
  7 25  1  0
  8 26  1  0
 12 27  1  0
 13 28  1  0
 14 29  1  0
 14 30  1  0
 14 31  1  0
 15 32  1  0
 15 33  1  0
 15 34  1  0
 16 35  1  0
 16 36  1  0
 16 37  1  0
 17 38  1  0
M  END
>  <Name>  (107) 
CHEMBL3623404

>  <Comment>  (107) 
 Schrodinger Suite 2021-4.

>  <s_m_entry_id>  (107) 
1254

>  <class_value>  (107) 
0

>  <s_m_Source_Path>  (107) 
C:\Users\vinicius\Desktop

>  <s_m_Source_File>  (107) 
Ligands_Saureus_o.sdf

>  <i_m_Source_File_Index>  (107) 
146

>  <r_lp_tautomer_probability>  (107) 
1

>  <r_epik_Ionization_Penalty>  (107) 
0

>  <r_epik_State_Penalty>  (107) 
0

>  <i_epik_Tot_Q>  (107) 
0

>  <i_f3d_flags>  (107) 
0

>  <s_m_job_name>  (107) 
Saureus_o

>  <FRED Chemgauss4 score>  (107) 
-10.544164

>  <Set>  (107) 
training

>  <HBA count>  (107) 
3

>  <HBD count>  (107) 
0

>  <ExactMolWt>  (107) 
304.0866220840005

>  <NumRotatableBounds>  (107) 
7

>  <FractionCsp3>  (107) 
0.23529411764705882

>  <TPSA>  (107) 
39.44

>  <LogP_WildmanCrippen>  (107) 
5.063120000000003

>  <General_Cluster>  (107) 
4

>  <Biological_Cluster>  (107) 
2

>  <Physicochemical_Cluster>  (107) 
1

>  <Structural_Cluster>  (107) 
1

$$$$
CHEMBL2178304
     RDKit          3D

 29 30  0  0  0  0  0  0  0  0999 V2000
  110.5031   70.1059   33.6162 C   0  0  0  0  0  0  0  0  0  0  0  0
  110.9214   69.8584   32.3088 C   0  0  0  0  0  0  0  0  0  0  0  0
  110.0754   69.0515   34.4230 C   0  0  0  0  0  0  0  0  0  0  0  0
  110.9118   68.5566   31.8081 C   0  0  0  0  0  0  0  0  0  0  0  0
  112.0974   65.4210   37.1419 C   0  0  0  0  0  0  0  0  0  0  0  0
  109.9002   67.1367   37.0352 C   0  0  0  0  0  0  0  0  0  0  0  0
  111.6692   66.0783   38.2952 C   0  0  0  0  0  0  0  0  0  0  0  0
  111.4270   65.6215   35.9352 C   0  0  0  0  0  0  0  0  0  0  0  0
  110.0658   67.7496   33.9223 C   0  0  0  0  0  0  0  0  0  0  0  0
  110.3285   66.4794   35.8818 C   0  0  0  0  0  0  0  0  0  0  0  0
  110.4840   67.5021   32.6148 C   0  0  0  0  0  0  0  0  0  0  0  0
  110.5706   66.9362   38.2419 C   0  0  0  0  0  0  0  0  0  0  0  0
  112.0330   64.5289   40.2326 C   0  0  0  0  0  0  0  0  0  0  0  0
  112.3874   65.8649   39.5850 C   0  0  0  0  0  0  0  0  0  0  0  0
  111.8341   65.0082   34.8844 O   0  0  0  0  0  1  0  0  0  0  0  0
  109.6414   66.7055   34.7226 O   0  0  0  0  0  0  0  0  0  0  0  0
  110.4770   66.2536   32.1279 F   0  0  0  0  0  0  0  0  0  0  0  0
  110.1524   67.5730   39.3447 F   0  0  0  0  0  0  0  0  0  0  0  0
  110.5105   71.1326   34.0110 H   0  0  0  0  0  0  0  0  0  0  0  0
  111.2589   70.6899   31.6726 H   0  0  0  0  0  0  0  0  0  0  0  0
  109.7457   69.2467   35.4541 H   0  0  0  0  0  0  0  0  0  0  0  0
  111.2416   68.3615   30.7770 H   0  0  0  0  0  0  0  0  0  0  0  0
  112.9638   64.7445   37.1839 H   0  0  0  0  0  0  0  0  0  0  0  0
  109.0338   67.8131   36.9932 H   0  0  0  0  0  0  0  0  0  0  0  0
  112.0607   64.6333   41.3273 H   0  0  0  0  0  0  0  0  0  0  0  0
  111.0233   64.2256   39.9186 H   0  0  0  0  0  0  0  0  0  0  0  0
  112.7596   63.7650   39.9186 H   0  0  0  0  0  0  0  0  0  0  0  0
  113.4705   65.8892   39.3947 H   0  0  0  0  0  0  0  0  0  0  0  0
  112.0822   66.6646   40.2759 H   0  0  0  0  0  0  0  0  0  0  0  0
  1  2  2  0
  1  3  1  0
  2  4  1  0
  3  9  2  0
  4 11  2  0
  5  7  2  0
  5  8  1  0
  6 10  1  0
  6 12  2  0
  7 12  1  0
  7 14  1  0
  8 10  2  0
  8 15  1  0
  9 11  1  0
  9 16  1  0
 10 16  1  0
 11 17  1  0
 12 18  1  0
 13 14  1  0
  1 19  1  0
  2 20  1  0
  3 21  1  0
  4 22  1  0
  5 23  1  0
  6 24  1  0
 13 25  1  0
 13 26  1  0
 13 27  1  0
 14 28  1  0
 14 29  1  0
M  CHG  1  15  -1
M  END
>  <Name>  (108) 
CHEMBL2178304

>  <Comment>  (108) 
 Schrodinger Suite 2021-4.

>  <s_m_entry_id>  (108) 
1075

>  <class_value>  (108) 
1

>  <s_m_Source_Path>  (108) 
C:\Users\vinicius\Desktop

>  <s_m_Source_File>  (108) 
Ligands_Saureus_o.sdf

>  <i_m_Source_File_Index>  (108) 
3

>  <r_lp_tautomer_probability>  (108) 
1

>  <r_epik_Ionization_Penalty>  (108) 
1.6592

>  <r_epik_State_Penalty>  (108) 
1.7619

>  <i_epik_Tot_Q>  (108) 
-1

>  <i_f3d_flags>  (108) 
0

>  <s_m_job_name>  (108) 
Saureus_o

>  <FRED Chemgauss4 score>  (108) 
-13.002634

>  <Set>  (108) 
training

>  <HBA count>  (108) 
2

>  <HBD count>  (108) 
0

>  <ExactMolWt>  (108) 
249.07325961191

>  <NumRotatableBounds>  (108) 
4

>  <FractionCsp3>  (108) 
0.14285714285714285

>  <TPSA>  (108) 
32.29

>  <LogP_WildmanCrippen>  (108) 
3.3931000000000013

>  <General_Cluster>  (108) 
4

>  <Biological_Cluster>  (108) 
1

>  <Physicochemical_Cluster>  (108) 
3

>  <Structural_Cluster>  (108) 
1

$$$$
FULL_S17
     RDKit          3D

 48 52  0  0  1  0  0  0  0  0999 V2000
  112.1529   64.9793   38.8425 C   0  0  0  0  0  0  0  0  0  0  0  0
  111.7380   66.1728   38.2557 C   0  0  0  0  0  0  0  0  0  0  0  0
  111.4792   64.4542   39.9509 C   0  0  0  0  0  0  0  0  0  0  0  0
  105.9494   63.4625   46.0204 C   0  0  0  0  0  0  0  0  0  0  0  0
  105.7534   62.0725   44.0541 C   0  0  0  0  0  0  0  0  0  0  0  0
  106.4021   68.0567   43.8347 C   0  0  0  0  0  0  0  0  0  0  0  0
  108.8114   67.8921   43.7606 C   0  0  0  0  0  0  0  0  0  0  0  0
  110.6393   66.8775   38.7551 C   0  0  0  0  0  0  0  0  0  0  0  0
  105.8319   62.3332   46.8305 C   0  0  0  0  0  0  0  0  0  0  0  0
  105.6360   60.9431   44.8642 C   0  0  0  0  0  0  0  0  0  0  0  0
  106.5047   69.2029   44.6229 C   0  0  0  0  0  0  0  0  0  0  0  0
  108.9139   69.0384   44.5487 C   0  0  0  0  0  0  0  0  0  0  0  0
  110.3695   65.1474   40.4751 C   0  0  0  0  0  0  0  0  0  0  0  0
  105.9101   63.3322   44.6322 C   0  0  0  0  0  0  0  0  0  0  0  0
  107.5555   67.4013   43.4036 C   0  0  0  0  0  0  0  0  0  0  0  0
  109.4735   64.9198   41.5557 C   0  0  0  0  0  0  0  0  0  0  0  0
  109.9741   66.3421   39.8640 C   0  0  0  0  0  0  0  0  0  0  0  0
  105.6752   61.0734   46.2525 C   0  0  0  0  0  0  0  0  0  0  0  0
  107.7605   69.6938   44.9799 C   0  0  0  0  0  0  0  0  0  0  0  0
  108.5738   65.9649   41.5791 C   0  0  0  0  0  0  0  0  0  0  0  0
  106.0328   64.5200   43.7801 C   0  0  0  0  0  0  0  0  0  0  0  0
  109.4016   63.8036   42.5359 C   0  0  0  0  0  0  0  0  0  0  0  0
  108.5683   64.2151   43.7607 C   0  0  0  0  0  0  0  0  0  0  0  0
  107.4439   66.1515   42.5435 C   0  0  1  0  0  0  0  0  0  0  0  0
  108.8759   66.8135   40.5506 N   0  0  0  0  0  0  0  0  0  0  0  0
  107.3151   64.9163   43.3724 N   0  0  0  0  0  0  0  0  0  0  0  0
  105.5675   60.0359   46.9965 O   0  0  0  0  0  1  0  0  0  0  0  0
  104.9794   65.0780   43.4764 O   0  0  0  0  0  0  0  0  0  0  0  0
  107.8604   70.8131   45.7479 O   0  0  0  0  0  0  0  0  0  0  0  0
  113.0203   64.4434   38.4297 H   0  0  0  0  0  0  0  0  0  0  0  0
  112.2838   66.5667   37.3856 H   0  0  0  0  0  0  0  0  0  0  0  0
  111.8120   63.5107   40.4081 H   0  0  0  0  0  0  0  0  0  0  0  0
  106.0731   64.4559   46.4763 H   0  0  0  0  0  0  0  0  0  0  0  0
  105.7224   61.9697   42.9593 H   0  0  0  0  0  0  0  0  0  0  0  0
  105.4117   67.6697   43.5531 H   0  0  0  0  0  0  0  0  0  0  0  0
  109.7209   67.3752   43.4206 H   0  0  0  0  0  0  0  0  0  0  0  0
  110.3091   67.8195   38.2930 H   0  0  0  0  0  0  0  0  0  0  0  0
  105.8628   62.4360   47.9252 H   0  0  0  0  0  0  0  0  0  0  0  0
  105.5125   59.9497   44.4083 H   0  0  0  0  0  0  0  0  0  0  0  0
  105.5952   69.7197   44.9630 H   0  0  0  0  0  0  0  0  0  0  0  0
  109.9043   69.4256   44.8302 H   0  0  0  0  0  0  0  0  0  0  0  0
  108.9342   62.9307   42.0568 H   0  0  0  0  0  0  0  0  0  0  0  0
  110.4207   63.5544   42.8665 H   0  0  0  0  0  0  0  0  0  0  0  0
  108.3075   63.3122   44.3323 H   0  0  0  0  0  0  0  0  0  0  0  0
  109.1720   64.9082   44.3649 H   0  0  0  0  0  0  0  0  0  0  0  0
  106.5283   66.3124   41.9555 H   0  0  0  0  0  0  0  0  0  0  0  0
  108.3603   67.6756   40.3230 H   0  0  0  0  0  0  0  0  0  0  0  0
  108.7517   71.1616   46.0013 H   0  0  0  0  0  0  0  0  0  0  0  0
  1  2  2  0
  1  3  1  0
  2  8  1  0
  3 13  2  0
  4  9  2  0
  4 14  1  0
  5 10  1  0
  5 14  2  0
  6 11  2  0
  6 15  1  0
  7 12  1  0
  7 15  2  0
  8 17  2  0
  9 18  1  0
 10 18  2  0
 11 19  1  0
 12 19  2  0
 13 16  1  0
 13 17  1  0
 14 21  1  0
 15 24  1  0
 16 20  2  0
 16 22  1  0
 17 25  1  0
 18 27  1  0
 19 29  1  0
 20 24  1  0
 20 25  1  0
 21 26  1  0
 21 28  2  0
 22 23  1  0
 23 26  1  0
 24 26  1  0
  1 30  1  0
  2 31  1  0
  3 32  1  0
  4 33  1  0
  5 34  1  0
  6 35  1  0
  7 36  1  0
  8 37  1  0
  9 38  1  0
 10 39  1  0
 11 40  1  0
 12 41  1  0
 22 42  1  0
 22 43  1  0
 23 44  1  0
 23 45  1  0
 24 46  1  6
 25 47  1  0
 29 48  1  0
M  CHG  1  27  -1
M  END
>  <Name>  (109) 
FULL_S17

>  <Comment>  (109) 
 Schrodinger Suite 2021-4.

>  <s_m_entry_id>  (109) 
1368

>  <class_value>  (109) 
0

>  <s_m_Source_Path>  (109) 
C:\Users\vinicius\Desktop

>  <s_m_Source_File>  (109) 
Ligands_Saureus_o.sdf

>  <i_m_Source_File_Index>  (109) 
218

>  <r_lp_tautomer_probability>  (109) 
0.999999999997365

>  <r_epik_Ionization_Penalty>  (109) 
2.2325

>  <r_epik_State_Penalty>  (109) 
2.3773

>  <i_epik_Tot_Q>  (109) 
-1

>  <i_f3d_flags>  (109) 
0

>  <s_m_job_name>  (109) 
Saureus_o

>  <FRED Chemgauss4 score>  (109) 
-10.727067

>  <Set>  (109) 
training

>  <HBA count>  (109) 
3

>  <HBD count>  (109) 
2

>  <ExactMolWt>  (109) 
383.1401160479105

>  <NumRotatableBounds>  (109) 
3

>  <FractionCsp3>  (109) 
0.125

>  <TPSA>  (109) 
79.39

>  <LogP_WildmanCrippen>  (109) 
3.7350000000000017

>  <General_Cluster>  (109) 
2

>  <Biological_Cluster>  (109) 
2

>  <Physicochemical_Cluster>  (109) 
1

>  <Structural_Cluster>  (109) 
3

$$$$
CHEMBL4204415
     RDKit          3D

 49 52  0  0  1  0  0  0  0  0999 V2000
  109.0083   63.4529   43.4263 C   0  0  0  0  0  0  0  0  0  0  0  0
  110.1158   68.6527   35.9058 C   0  0  0  0  0  0  0  0  0  0  0  0
  110.1050   69.2758   34.6556 C   0  0  0  0  0  0  0  0  0  0  0  0
  109.1335   62.3926   44.3170 C   0  0  0  0  0  0  0  0  0  0  0  0
  111.7550   70.2504   36.7356 C   0  0  0  0  0  0  0  0  0  0  0  0
  107.6245   64.5561   45.0152 C   0  0  0  0  0  0  0  0  0  0  0  0
  108.2412   64.5591   43.7744 C   0  0  0  0  0  0  0  0  0  0  0  0
  110.9360   69.1372   36.9399 C   0  0  0  0  0  0  0  0  0  0  0  0
  110.9228   70.3731   34.4800 C   0  0  0  0  0  0  0  0  0  0  0  0
  111.7256   70.8474   35.4921 C   0  0  0  0  0  0  0  0  0  0  0  0
  108.4770   62.4867   45.5336 C   0  0  0  0  0  0  0  0  0  0  0  0
  108.0888   65.6984   42.8528 C   0  0  0  0  0  0  0  0  0  0  0  0
  108.9124   65.9787   41.8319 C   0  0  0  0  0  0  0  0  0  0  0  0
  108.7234   67.1398   40.9399 C   0  0  0  0  0  0  0  0  0  0  0  0
  108.0481   61.2785   47.6970 C   0  0  0  0  0  0  0  0  0  0  0  0
  111.3152   66.9552   38.2914 C   0  0  0  0  0  0  0  0  0  0  0  0
  110.8021   66.4561   39.6345 C   0  0  0  0  0  0  0  0  0  0  0  0
  109.5676   68.4106   38.9895 C   0  0  0  0  0  0  0  0  0  0  0  0
  112.0131   72.0917   33.7454 C   0  0  0  0  0  0  0  0  0  0  0  0
  110.9316   68.4448   38.2855 C   0  0  2  0  0  0  0  0  0  0  0  0
  108.4293   59.9662   48.3350 C   0  0  0  0  0  0  0  0  0  0  0  0
  107.7230   63.5449   45.9069 N   0  0  0  0  0  0  0  0  0  0  0  0
  109.6520   67.3024   39.9300 N   0  0  0  0  0  0  0  0  0  0  0  0
  108.6096   61.4141   46.4236 N   0  0  0  0  0  0  0  0  0  0  0  0
  107.7695   67.8913   41.1398 O   0  0  0  0  0  0  0  0  0  0  0  0
  107.3263   62.0769   48.2856 O   0  0  0  0  0  0  0  0  0  0  0  0
  111.0436   71.1044   33.3387 O   0  0  0  0  0  0  0  0  0  0  0  0
  112.4498   71.9348   35.1111 O   0  0  0  0  0  0  0  0  0  0  0  0
  109.5141   63.4167   42.4502 H   0  0  0  0  0  0  0  0  0  0  0  0
  109.4768   67.7750   36.0828 H   0  0  0  0  0  0  0  0  0  0  0  0
  109.4670   68.9047   33.8399 H   0  0  0  0  0  0  0  0  0  0  0  0
  109.7348   61.5070   44.0638 H   0  0  0  0  0  0  0  0  0  0  0  0
  112.4005   70.6373   37.5378 H   0  0  0  0  0  0  0  0  0  0  0  0
  107.0172   65.4306   45.2917 H   0  0  0  0  0  0  0  0  0  0  0  0
  107.2336   66.3711   43.0144 H   0  0  0  0  0  0  0  0  0  0  0  0
  109.7686   65.3123   41.6508 H   0  0  0  0  0  0  0  0  0  0  0  0
  112.4056   66.8306   38.2171 H   0  0  0  0  0  0  0  0  0  0  0  0
  110.8906   66.4022   37.4406 H   0  0  0  0  0  0  0  0  0  0  0  0
  110.4996   65.4007   39.5661 H   0  0  0  0  0  0  0  0  0  0  0  0
  111.5708   66.5102   40.4195 H   0  0  0  0  0  0  0  0  0  0  0  0
  109.3844   69.3555   39.5220 H   0  0  0  0  0  0  0  0  0  0  0  0
  108.7397   68.2830   38.2766 H   0  0  0  0  0  0  0  0  0  0  0  0
  112.8906   72.0111   33.0870 H   0  0  0  0  0  0  0  0  0  0  0  0
  111.5269   73.0755   33.6702 H   0  0  0  0  0  0  0  0  0  0  0  0
  111.6813   69.0732   38.7886 H   0  0  0  0  0  0  0  0  0  0  0  0
  108.3996   60.0685   49.4298 H   0  0  0  0  0  0  0  0  0  0  0  0
  107.7207   59.1859   48.0203 H   0  0  0  0  0  0  0  0  0  0  0  0
  109.4457   59.6870   48.0203 H   0  0  0  0  0  0  0  0  0  0  0  0
  109.1923   60.6285   46.1007 H   0  0  0  0  0  0  0  0  0  0  0  0
  1  4  2  0
  1  7  1  0
  2  3  2  0
  2  8  1  0
  3  9  1  0
  4 11  1  0
  5  8  2  0
  5 10  1  0
  6  7  2  0
  6 22  1  0
  7 12  1  0
  8 20  1  0
  9 10  2  0
  9 27  1  0
 10 28  1  0
 11 22  2  0
 11 24  1  0
 12 13  2  0
 13 14  1  0
 14 23  1  0
 14 25  2  0
 15 21  1  0
 15 24  1  0
 15 26  2  0
 16 17  1  0
 16 20  1  0
 17 23  1  0
 18 20  1  0
 18 23  1  0
 19 27  1  0
 19 28  1  0
  1 29  1  0
  2 30  1  0
  3 31  1  0
  4 32  1  0
  5 33  1  0
  6 34  1  0
 12 35  1  0
 13 36  1  0
 16 37  1  0
 16 38  1  0
 17 39  1  0
 17 40  1  0
 18 41  1  0
 18 42  1  0
 19 43  1  0
 19 44  1  0
 20 45  1  1
 21 46  1  0
 21 47  1  0
 21 48  1  0
 24 49  1  0
M  END
>  <Name>  (110) 
CHEMBL4204415

>  <Comment>  (110) 
 Schrodinger Suite 2021-4.

>  <s_m_entry_id>  (110) 
1436

>  <s_m_Source_Path>  (110) 
C:\Users\vinicius\Desktop

>  <s_m_Source_File>  (110) 
Ligands_Saureus_failomega.smi

>  <i_m_Source_File_Index>  (110) 
7

>  <r_lp_tautomer_probability>  (110) 
1

>  <r_epik_Ionization_Penalty>  (110) 
0.0001

>  <r_epik_State_Penalty>  (110) 
0

>  <i_epik_Tot_Q>  (110) 
0

>  <i_f3d_flags>  (110) 
0

>  <s_m_job_name>  (110) 
Saureus_fail

>  <class_value>  (110) 
0

>  <FRED Chemgauss4 score>  (110) 
-11.173310

>  <Set>  (110) 
training

>  <HBA count>  (110) 
5

>  <HBD count>  (110) 
1

>  <ExactMolWt>  (110) 
379.15320615200056

>  <NumRotatableBounds>  (110) 
5

>  <FractionCsp3>  (110) 
0.2857142857142857

>  <TPSA>  (110) 
80.76

>  <LogP_WildmanCrippen>  (110) 
2.798000000000001

>  <General_Cluster>  (110) 
5

>  <Biological_Cluster>  (110) 
2

>  <Physicochemical_Cluster>  (110) 
4

>  <Structural_Cluster>  (110) 
2

$$$$
CHEMBL3623423
     RDKit          3D

 47 50  0  0  0  0  0  0  0  0999 V2000
  106.0023   63.7674   44.9622 C   0  0  0  0  0  0  0  0  0  0  0  0
  107.3577   63.4574   44.8512 C   0  0  0  0  0  0  0  0  0  0  0  0
  105.3937   64.5856   44.0104 C   0  0  0  0  0  0  0  0  0  0  0  0
  108.1046   63.9656   43.7884 C   0  0  0  0  0  0  0  0  0  0  0  0
  106.1407   65.0939   42.9477 C   0  0  0  0  0  0  0  0  0  0  0  0
  110.4598   66.5869   35.4639 C   0  0  0  0  0  0  0  0  0  0  0  0
  109.6130   66.7906   34.3745 C   0  0  0  0  0  0  0  0  0  0  0  0
  109.9866   69.1725   34.5293 C   0  0  0  0  0  0  0  0  0  0  0  0
  110.8334   68.9688   35.6189 C   0  0  0  0  0  0  0  0  0  0  0  0
  107.4961   64.7839   42.8367 C   0  0  0  0  0  0  0  0  0  0  0  0
  111.0700   67.6761   36.0862 C   0  0  0  0  0  0  0  0  0  0  0  0
  109.3764   68.0834   33.9071 C   0  0  0  0  0  0  0  0  0  0  0  0
  111.2661   64.9409   39.9266 C   0  0  0  0  0  0  0  0  0  0  0  0
  110.3222   67.3663   38.9366 C   0  0  0  0  0  0  0  0  0  0  0  0
  111.3516   66.8447   38.2544 C   0  0  0  0  0  0  0  0  0  0  0  0
  110.2337   65.5675   40.5253 C   0  0  0  0  0  0  0  0  0  0  0  0
  111.9048   65.5497   38.7290 C   0  0  0  0  0  0  0  0  0  0  0  0
  108.6235   67.7900   42.1841 C   0  0  0  0  0  0  0  0  0  0  0  0
  108.7030   68.9009   41.1791 C   0  0  0  0  0  0  0  0  0  0  0  0
  108.5988   67.4752   40.7144 C   0  0  0  0  0  0  0  0  0  0  0  0
  111.4765   70.1463   36.2742 C   0  0  0  0  0  0  0  0  0  0  0  0
  109.5997   64.9355   41.7376 C   0  0  0  0  0  0  0  0  0  0  0  0
  109.7276   66.7943   40.0555 N   0  0  0  0  0  0  0  0  0  0  0  0
  112.8454   65.0020   38.1652 O   0  0  0  0  0  0  0  0  0  0  0  0
  111.8979   67.4589   37.1540 O   0  0  0  0  0  0  0  0  0  0  0  0
  108.2320   65.2864   41.7903 O   0  0  0  0  0  0  0  0  0  0  0  0
  108.3317   68.3353   32.5631 Cl  0  0  0  0  0  0  0  0  0  0  0  0
  105.4133   63.3666   45.8003 H   0  0  0  0  0  0  0  0  0  0  0  0
  107.8376   62.8122   45.6018 H   0  0  0  0  0  0  0  0  0  0  0  0
  104.3248   64.8300   44.0979 H   0  0  0  0  0  0  0  0  0  0  0  0
  109.1735   63.7210   43.7008 H   0  0  0  0  0  0  0  0  0  0  0  0
  105.6609   65.7392   42.1972 H   0  0  0  0  0  0  0  0  0  0  0  0
  110.6465   65.5674   35.8324 H   0  0  0  0  0  0  0  0  0  0  0  0
  109.1317   65.9317   33.8839 H   0  0  0  0  0  0  0  0  0  0  0  0
  109.8000   70.1920   34.1607 H   0  0  0  0  0  0  0  0  0  0  0  0
  111.6349   63.9830   40.3221 H   0  0  0  0  0  0  0  0  0  0  0  0
  109.9149   68.3247   38.5823 H   0  0  0  0  0  0  0  0  0  0  0  0
  109.5059   67.5301   42.7873 H   0  0  0  0  0  0  0  0  0  0  0  0
  107.9709   67.5606   43.0394 H   0  0  0  0  0  0  0  0  0  0  0  0
  107.8521   69.5855   41.0479 H   0  0  0  0  0  0  0  0  0  0  0  0
  109.4001   69.7308   40.9912 H   0  0  0  0  0  0  0  0  0  0  0  0
  107.9218   66.9220   40.0469 H   0  0  0  0  0  0  0  0  0  0  0  0
  111.4163   70.0360   37.3670 H   0  0  0  0  0  0  0  0  0  0  0  0
  112.5318   70.2047   35.9692 H   0  0  0  0  0  0  0  0  0  0  0  0
  110.9553   71.0657   35.9692 H   0  0  0  0  0  0  0  0  0  0  0  0
  109.6954   63.8416   41.6733 H   0  0  0  0  0  0  0  0  0  0  0  0
  110.1059   65.2949   42.6457 H   0  0  0  0  0  0  0  0  0  0  0  0
  1  2  2  0
  1  3  1  0
  2  4  1  0
  3  5  2  0
  4 10  2  0
  5 10  1  0
  6  7  2  0
  6 11  1  0
  7 12  1  0
  8  9  1  0
  8 12  2  0
  9 11  2  0
  9 21  1  0
 10 26  1  0
 11 25  1  0
 12 27  1  0
 13 16  2  0
 13 17  1  0
 14 15  2  0
 14 23  1  0
 15 17  1  0
 15 25  1  0
 16 22  1  0
 16 23  1  0
 17 24  2  0
 18 19  1  0
 18 20  1  0
 19 20  1  0
 20 23  1  0
 22 26  1  0
  1 28  1  0
  2 29  1  0
  3 30  1  0
  4 31  1  0
  5 32  1  0
  6 33  1  0
  7 34  1  0
  8 35  1  0
 13 36  1  0
 14 37  1  0
 18 38  1  0
 18 39  1  0
 19 40  1  0
 19 41  1  0
 20 42  1  0
 21 43  1  0
 21 44  1  0
 21 45  1  0
 22 46  1  0
 22 47  1  0
M  END
>  <Name>  (111) 
CHEMBL3623423

>  <Comment>  (111) 
 Schrodinger Suite 2021-4.

>  <s_m_entry_id>  (111) 
1170

>  <class_value>  (111) 
1

>  <s_m_Source_Path>  (111) 
C:\Users\vinicius\Desktop

>  <s_m_Source_File>  (111) 
Ligands_Saureus_o.sdf

>  <i_m_Source_File_Index>  (111) 
76

>  <r_lp_tautomer_probability>  (111) 
1

>  <r_epik_Ionization_Penalty>  (111) 
0

>  <r_epik_State_Penalty>  (111) 
0

>  <i_epik_Tot_Q>  (111) 
0

>  <i_f3d_flags>  (111) 
0

>  <s_m_job_name>  (111) 
Saureus_o

>  <FRED Chemgauss4 score>  (111) 
-12.294544

>  <Set>  (111) 
training

>  <HBA count>  (111) 
4

>  <HBD count>  (111) 
0

>  <ExactMolWt>  (111) 
381.1131711800005

>  <NumRotatableBounds>  (111) 
7

>  <FractionCsp3>  (111) 
0.22727272727272727

>  <TPSA>  (111) 
40.46

>  <LogP_WildmanCrippen>  (111) 
5.516320000000003

>  <General_Cluster>  (111) 
1

>  <Biological_Cluster>  (111) 
1

>  <Physicochemical_Cluster>  (111) 
1

>  <Structural_Cluster>  (111) 
5

$$$$
CHEMBL3322706
     RDKit          3D

 48 51  0  0  0  0  0  0  0  0999 V2000
  112.3868   72.8773   33.5029 C   0  0  0  0  0  0  0  0  0  0  0  0
  112.9327   71.9299   32.6368 C   0  0  0  0  0  0  0  0  0  0  0  0
  111.1524   72.6401   34.1076 C   0  0  0  0  0  0  0  0  0  0  0  0
  112.2441   70.7453   32.3754 C   0  0  0  0  0  0  0  0  0  0  0  0
  110.4638   71.4555   33.8462 C   0  0  0  0  0  0  0  0  0  0  0  0
  110.1178   65.7878   39.6476 C   0  0  0  0  0  0  0  0  0  0  0  0
  112.3966   65.9088   40.3063 C   0  0  0  0  0  0  0  0  0  0  0  0
  111.4616   65.6708   39.3145 C   0  0  0  0  0  0  0  0  0  0  0  0
  109.7512   66.1163   40.9535 C   0  0  0  0  0  0  0  0  0  0  0  0
  111.0097   70.5081   32.9801 C   0  0  0  0  0  0  0  0  0  0  0  0
  110.7672   66.3312   41.8842 C   0  0  0  0  0  0  0  0  0  0  0  0
  109.1348   66.6712   43.7022 C   0  0  0  0  0  0  0  0  0  0  0  0
  111.8721   65.3246   37.9660 C   0  0  0  0  0  0  0  0  0  0  0  0
  111.1158   65.4533   36.8503 C   0  0  0  0  0  0  0  0  0  0  0  0
  111.5744   65.0783   35.5005 C   0  0  0  0  0  0  0  0  0  0  0  0
  108.3195   66.3460   41.3320 C   0  0  0  0  0  0  0  0  0  0  0  0
  108.0936   66.0359   42.8033 C   0  0  0  0  0  0  0  0  0  0  0  0
  110.0832   66.8975   34.4066 C   0  0  0  0  0  0  0  0  0  0  0  0
  111.2340   65.6922   33.0470 C   0  0  0  0  0  0  0  0  0  0  0  0
  110.3746   66.9589   32.8968 C   0  0  0  0  0  0  0  0  0  0  0  0
  111.1132   68.1989   32.4208 C   0  0  0  0  0  0  0  0  0  0  0  0
  112.0832   66.2430   41.5780 N   0  0  0  0  0  0  0  0  0  0  0  0
  110.4217   66.6878   43.2018 N   0  0  0  0  0  0  0  0  0  0  0  0
  111.0337   65.8057   34.4791 N   0  0  0  0  0  0  0  0  0  0  0  0
  108.8514   67.0543   44.8372 O   0  0  0  0  0  0  0  0  0  0  0  0
  112.3865   64.1673   35.3604 O   0  0  0  0  0  0  0  0  0  0  0  0
  110.3314   69.3442   32.7220 O   0  0  0  0  0  0  0  0  0  0  0  0
  112.9298   73.8115   33.7090 H   0  0  0  0  0  0  0  0  0  0  0  0
  113.9062   72.1169   32.1600 H   0  0  0  0  0  0  0  0  0  0  0  0
  110.7220   73.3872   34.7906 H   0  0  0  0  0  0  0  0  0  0  0  0
  112.6745   69.9982   31.6924 H   0  0  0  0  0  0  0  0  0  0  0  0
  109.4903   71.2685   34.3230 H   0  0  0  0  0  0  0  0  0  0  0  0
  109.3442   65.6218   38.8834 H   0  0  0  0  0  0  0  0  0  0  0  0
  113.4611   65.8206   40.0436 H   0  0  0  0  0  0  0  0  0  0  0  0
  112.8879   64.9219   37.8392 H   0  0  0  0  0  0  0  0  0  0  0  0
  110.1000   65.8615   36.9574 H   0  0  0  0  0  0  0  0  0  0  0  0
  108.0603   67.3979   41.1412 H   0  0  0  0  0  0  0  0  0  0  0  0
  107.6843   65.6799   40.7297 H   0  0  0  0  0  0  0  0  0  0  0  0
  108.1274   64.9452   42.9421 H   0  0  0  0  0  0  0  0  0  0  0  0
  107.1147   66.4520   43.0837 H   0  0  0  0  0  0  0  0  0  0  0  0
  110.3746   67.7978   34.9674 H   0  0  0  0  0  0  0  0  0  0  0  0
  109.0588   66.8005   34.7954 H   0  0  0  0  0  0  0  0  0  0  0  0
  110.8022   64.7880   32.5933 H   0  0  0  0  0  0  0  0  0  0  0  0
  112.2393   65.6186   32.6067 H   0  0  0  0  0  0  0  0  0  0  0  0
  109.5556   67.0044   32.1638 H   0  0  0  0  0  0  0  0  0  0  0  0
  112.0841   68.2696   32.9330 H   0  0  0  0  0  0  0  0  0  0  0  0
  111.2821   68.1382   31.3355 H   0  0  0  0  0  0  0  0  0  0  0  0
  111.1796   66.9807   43.8348 H   0  0  0  0  0  0  0  0  0  0  0  0
  1  2  2  0
  1  3  1  0
  2  4  1  0
  3  5  2  0
  4 10  2  0
  5 10  1  0
  6  8  2  0
  6  9  1  0
  7  8  1  0
  7 22  2  0
  8 13  1  0
  9 11  2  0
  9 16  1  0
 10 27  1  0
 11 22  1  0
 11 23  1  0
 12 17  1  0
 12 23  1  0
 12 25  2  0
 13 14  2  0
 14 15  1  0
 15 24  1  0
 15 26  2  0
 16 17  1  0
 18 20  1  0
 18 24  1  0
 19 20  1  0
 19 24  1  0
 20 21  1  0
 21 27  1  0
  1 28  1  0
  2 29  1  0
  3 30  1  0
  4 31  1  0
  5 32  1  0
  6 33  1  0
  7 34  1  0
 13 35  1  0
 14 36  1  0
 16 37  1  0
 16 38  1  0
 17 39  1  0
 17 40  1  0
 18 41  1  0
 18 42  1  0
 19 43  1  0
 19 44  1  0
 20 45  1  0
 21 46  1  0
 21 47  1  0
 23 48  1  0
M  END
>  <Name>  (112) 
CHEMBL3322706

>  <Comment>  (112) 
 Schrodinger Suite 2021-4.

>  <s_m_entry_id>  (112) 
1149

>  <class_value>  (112) 
1

>  <s_m_Source_Path>  (112) 
C:\Users\vinicius\Desktop

>  <s_m_Source_File>  (112) 
Ligands_Saureus_o.sdf

>  <i_m_Source_File_Index>  (112) 
60

>  <r_lp_tautomer_probability>  (112) 
1

>  <r_epik_Ionization_Penalty>  (112) 
0.0002

>  <r_epik_State_Penalty>  (112) 
0

>  <i_epik_Tot_Q>  (112) 
0

>  <i_f3d_flags>  (112) 
0

>  <s_m_job_name>  (112) 
Saureus_o

>  <FRED Chemgauss4 score>  (112) 
-13.182678

>  <Set>  (112) 
training

>  <HBA count>  (112) 
4

>  <HBD count>  (112) 
1

>  <ExactMolWt>  (112) 
363.1582915320006

>  <NumRotatableBounds>  (112) 
5

>  <FractionCsp3>  (112) 
0.2857142857142857

>  <TPSA>  (112) 
71.53

>  <LogP_WildmanCrippen>  (112) 
2.5169000000000006

>  <General_Cluster>  (112) 
1

>  <Biological_Cluster>  (112) 
1

>  <Physicochemical_Cluster>  (112) 
4

>  <Structural_Cluster>  (112) 
2

$$$$
Zheng_5
     RDKit          3D

 62 66  0  0  1  0  0  0  0  0999 V2000
  107.0999   69.7437   47.4554 C   0  0  0  0  0  0  0  0  0  0  0  0
  107.1096   70.7425   46.4623 C   0  0  0  0  0  0  0  0  0  0  0  0
  107.1586   68.3897   47.1171 C   0  0  0  0  0  0  0  0  0  0  0  0
  107.1876   70.4123   45.1063 C   0  0  0  0  0  0  0  0  0  0  0  0
  111.3272   65.3801   39.9711 C   0  0  0  0  0  0  0  0  0  0  0  0
  111.4045   66.4219   38.0194 C   0  0  0  0  0  0  0  0  0  0  0  0
  107.2438   68.0697   45.7775 C   0  0  0  0  0  0  0  0  0  0  0  0
  107.2613   69.0732   44.7751 C   0  0  0  0  0  0  0  0  0  0  0  0
  110.0920   65.9107   39.7271 C   0  0  0  0  0  0  0  0  0  0  0  0
  107.7962   65.4825   45.5539 C   0  0  0  0  0  0  0  0  0  0  0  0
  107.9969   64.5068   44.6461 C   0  0  0  0  0  0  0  0  0  0  0  0
  108.8605   66.3073   41.8107 C   0  0  0  0  0  0  0  0  0  0  0  0
  107.7071   64.7544   43.1723 C   0  0  0  0  0  0  0  0  0  0  0  0
  109.9792   67.0255   42.4940 C   0  0  0  0  0  0  0  0  0  0  0  0
  104.9914   64.2304   43.8430 C   0  0  0  0  0  0  0  0  0  0  0  0
  108.9363   65.8181   40.5721 C   0  0  0  0  0  0  0  0  0  0  0  0
  105.4792   64.9830   44.8371 C   0  0  0  0  0  0  0  0  0  0  0  0
  107.2040   66.7499   45.0635 C   0  0  2  0  0  0  0  0  0  0  0  0
  107.9909   67.1605   43.7715 C   0  0  2  0  0  0  0  0  0  0  0  0
  104.9077   67.0925   46.0084 C   0  0  0  0  0  0  0  0  0  0  0  0
  105.2738   67.1894   43.5386 C   0  0  0  0  0  0  0  0  0  0  0  0
  110.2630   67.7397   44.9127 C   0  0  0  0  0  0  0  0  0  0  0  0
  107.5439   62.6190   45.9144 C   0  0  0  0  0  0  0  0  0  0  0  0
  106.8069   70.0186   41.8370 C   0  0  0  0  0  0  0  0  0  0  0  0
  105.6754   66.4818   44.8350 C   0  0  0  0  0  0  0  0  0  0  0  0
  110.1687   66.5500   38.5132 N   0  0  0  0  0  0  0  0  0  0  0  0
  112.1190   65.7115   38.8981 N   0  0  0  0  0  4  0  0  0  0  0  0
  107.4053   68.4919   43.4764 N   0  0  0  0  0  0  0  0  0  0  0  0
  107.8466   66.1074   42.7459 N   0  0  0  0  0  0  0  0  0  0  0  0
  109.4676   67.3273   43.7698 N   0  0  0  0  0  0  0  0  0  0  0  0
  107.5115   63.7960   42.4258 O   0  0  0  0  0  0  0  0  0  0  0  0
  111.0878   67.2280   42.0324 O   0  0  0  0  0  0  0  0  0  0  0  0
  108.4295   63.2550   45.0236 O   0  0  0  0  0  0  0  0  0  0  0  0
  107.8676   69.2114   42.3925 O   0  0  0  0  0  0  0  0  0  0  0  0
  107.0452   70.0347   48.5148 H   0  0  0  0  0  0  0  0  0  0  0  0
  107.0549   71.8004   46.7589 H   0  0  0  0  0  0  0  0  0  0  0  0
  107.1377   67.6074   47.8901 H   0  0  0  0  0  0  0  0  0  0  0  0
  107.1902   71.1916   44.3300 H   0  0  0  0  0  0  0  0  0  0  0  0
  111.6293   64.7999   40.8554 H   0  0  0  0  0  0  0  0  0  0  0  0
  111.7675   66.8275   37.0635 H   0  0  0  0  0  0  0  0  0  0  0  0
  108.0604   65.3444   46.6127 H   0  0  0  0  0  0  0  0  0  0  0  0
  104.8987   63.1419   43.9718 H   0  0  0  0  0  0  0  0  0  0  0  0
  104.6833   64.7006   42.8975 H   0  0  0  0  0  0  0  0  0  0  0  0
  108.0492   65.3071   40.1697 H   0  0  0  0  0  0  0  0  0  0  0  0
  105.7690   64.4525   45.7561 H   0  0  0  0  0  0  0  0  0  0  0  0
  105.3463   66.7436   46.9549 H   0  0  0  0  0  0  0  0  0  0  0  0
  104.9714   68.1895   45.9571 H   0  0  0  0  0  0  0  0  0  0  0  0
  103.8532   66.7837   45.9571 H   0  0  0  0  0  0  0  0  0  0  0  0
  104.7440   68.1229   43.7793 H   0  0  0  0  0  0  0  0  0  0  0  0
  106.1755   67.4203   42.9524 H   0  0  0  0  0  0  0  0  0  0  0  0
  104.6133   66.5336   42.9524 H   0  0  0  0  0  0  0  0  0  0  0  0
  109.7392   67.4681   45.8411 H   0  0  0  0  0  0  0  0  0  0  0  0
  111.2395   67.2343   44.8813 H   0  0  0  0  0  0  0  0  0  0  0  0
  110.4127   68.8290   44.8813 H   0  0  0  0  0  0  0  0  0  0  0  0
  107.8462   62.8361   46.9495 H   0  0  0  0  0  0  0  0  0  0  0  0
  106.5229   62.9915   45.7448 H   0  0  0  0  0  0  0  0  0  0  0  0
  107.5707   61.5325   45.7448 H   0  0  0  0  0  0  0  0  0  0  0  0
  106.2201   70.4652   42.6532 H   0  0  0  0  0  0  0  0  0  0  0  0
  107.2402   70.8175   41.2173 H   0  0  0  0  0  0  0  0  0  0  0  0
  106.1524   69.3880   41.2173 H   0  0  0  0  0  0  0  0  0  0  0  0
  109.3940   67.0505   38.0547 H   0  0  0  0  0  0  0  0  0  0  0  0
  113.1098   65.4526   38.7878 H   0  0  0  0  0  0  0  0  0  0  0  0
  1  2  2  0
  1  3  1  0
  2  4  1  0
  3  7  2  0
  4  8  2  0
  5  9  2  0
  5 27  1  0
  6 26  1  0
  6 27  2  0
  7  8  1  0
  7 18  1  0
  8 28  1  0
  9 16  1  0
  9 26  1  0
 10 11  2  0
 10 18  1  0
 11 13  1  0
 11 33  1  0
 12 14  1  0
 12 16  2  0
 12 29  1  0
 13 29  1  0
 13 31  2  0
 14 30  1  0
 14 32  2  0
 15 17  2  3
 17 25  1  0
 18 19  1  0
 18 25  1  6
 19 28  1  6
 19 29  1  0
 19 30  1  0
 20 25  1  0
 21 25  1  0
 22 30  1  0
 23 33  1  0
 24 34  1  0
 28 34  1  0
  1 35  1  0
  2 36  1  0
  3 37  1  0
  4 38  1  0
  5 39  1  0
  6 40  1  0
 10 41  1  0
 15 42  1  0
 15 43  1  0
 16 44  1  0
 17 45  1  0
 20 46  1  0
 20 47  1  0
 20 48  1  0
 21 49  1  0
 21 50  1  0
 21 51  1  0
 22 52  1  0
 22 53  1  0
 22 54  1  0
 23 55  1  0
 23 56  1  0
 23 57  1  0
 24 58  1  0
 24 59  1  0
 24 60  1  0
 26 61  1  0
 27 62  1  0
M  CHG  1  27   1
M  END
>  <Name>  (113) 
Zheng_5

>  <Comment>  (113) 
 Schrodinger Suite 2021-4.

>  <s_m_entry_id>  (113) 
1406

>  <class_value>  (113) 
0

>  <s_m_Source_Path>  (113) 
C:\Users\vinicius\Desktop

>  <s_m_Source_File>  (113) 
Ligands_Saureus_o.sdf

>  <i_m_Source_File_Index>  (113) 
232

>  <r_epik_Ionization_Penalty>  (113) 
1.5306

>  <r_epik_State_Penalty>  (113) 
1.4649

>  <i_epik_Tot_Q>  (113) 
1

>  <i_f3d_flags>  (113) 
0

>  <s_m_job_name>  (113) 
Saureus_o

>  <FRED Chemgauss4 score>  (113) 
-5.595864

>  <Set>  (113) 
training

>  <HBA count>  (113) 
5

>  <HBD count>  (113) 
1

>  <ExactMolWt>  (113) 
462.2135807960908

>  <NumRotatableBounds>  (113) 
10

>  <FractionCsp3>  (113) 
0.32

>  <TPSA>  (113) 
92.25000000000001

>  <LogP_WildmanCrippen>  (113) 
2.1995999999999998

>  <General_Cluster>  (113) 
5

>  <Biological_Cluster>  (113) 
2

>  <Physicochemical_Cluster>  (113) 
4

>  <Structural_Cluster>  (113) 
3

$$$$
CHEMBL3621751
     RDKit          3D

 42 44  0  0  0  0  0  0  0  0999 V2000
  106.3287   63.2352   45.1444 C   0  0  0  0  0  0  0  0  0  0  0  0
  107.7216   63.1635   45.1540 C   0  0  0  0  0  0  0  0  0  0  0  0
  105.6673   63.8083   44.0581 C   0  0  0  0  0  0  0  0  0  0  0  0
  110.5053   69.9863   36.1180 C   0  0  0  0  0  0  0  0  0  0  0  0
  109.7489   69.4626   35.0696 C   0  0  0  0  0  0  0  0  0  0  0  0
  108.4532   63.6649   44.0774 C   0  0  0  0  0  0  0  0  0  0  0  0
  106.3988   64.3097   42.9816 C   0  0  0  0  0  0  0  0  0  0  0  0
  111.3282   69.1484   36.8707 C   0  0  0  0  0  0  0  0  0  0  0  0
  109.8153   68.1011   34.7739 C   0  0  0  0  0  0  0  0  0  0  0  0
  107.7918   64.2380   42.9912 C   0  0  0  0  0  0  0  0  0  0  0  0
  111.3947   67.7869   36.5750 C   0  0  0  0  0  0  0  0  0  0  0  0
  110.6382   67.2632   35.5266 C   0  0  0  0  0  0  0  0  0  0  0  0
  111.0207   64.3800   39.8185 C   0  0  0  0  0  0  0  0  0  0  0  0
  111.1428   67.1380   39.4552 C   0  0  0  0  0  0  0  0  0  0  0  0
  111.6626   66.4168   38.4519 C   0  0  0  0  0  0  0  0  0  0  0  0
  110.5312   65.2148   40.7569 C   0  0  0  0  0  0  0  0  0  0  0  0
  111.6299   64.9367   38.5808 C   0  0  0  0  0  0  0  0  0  0  0  0
  110.0389   67.5145   41.6336 C   0  0  0  0  0  0  0  0  0  0  0  0
  109.9196   64.6314   42.0044 C   0  0  0  0  0  0  0  0  0  0  0  0
  110.5740   66.6143   40.6106 N   0  0  0  0  0  0  0  0  0  0  0  0
  109.0268   67.6071   33.6961 N   0  0  0  0  0  4  0  0  0  0  0  0
  109.5209   67.5886   32.5449 O   0  0  0  0  0  1  0  0  0  0  0  0
  112.0826   64.2013   37.7109 O   0  0  0  0  0  0  0  0  0  0  0  0
  107.8633   67.2067   33.9327 O   0  0  0  0  0  0  0  0  0  0  0  0
  112.2122   66.9930   37.3328 O   0  0  0  0  0  0  0  0  0  0  0  0
  108.5123   64.7337   41.9309 O   0  0  0  0  0  0  0  0  0  0  0  0
  110.7350   65.5682   35.1757 Cl  0  0  0  0  0  0  0  0  0  0  0  0
  105.7517   62.8398   45.9934 H   0  0  0  0  0  0  0  0  0  0  0  0
  108.2432   62.7116   46.0106 H   0  0  0  0  0  0  0  0  0  0  0  0
  104.5688   63.8648   44.0505 H   0  0  0  0  0  0  0  0  0  0  0  0
  110.4529   71.0600   36.3512 H   0  0  0  0  0  0  0  0  0  0  0  0
  109.1000   70.1233   34.4760 H   0  0  0  0  0  0  0  0  0  0  0  0
  109.5517   63.6084   44.0850 H   0  0  0  0  0  0  0  0  0  0  0  0
  105.8772   64.7617   42.1251 H   0  0  0  0  0  0  0  0  0  0  0  0
  111.9247   69.5614   37.6975 H   0  0  0  0  0  0  0  0  0  0  0  0
  110.9699   63.2913   39.9674 H   0  0  0  0  0  0  0  0  0  0  0  0
  111.1684   68.2332   39.3563 H   0  0  0  0  0  0  0  0  0  0  0  0
  110.2752   67.1170   42.6317 H   0  0  0  0  0  0  0  0  0  0  0  0
  110.4918   68.5104   41.5189 H   0  0  0  0  0  0  0  0  0  0  0  0
  108.9477   67.5925   41.5189 H   0  0  0  0  0  0  0  0  0  0  0  0
  110.2062   63.5731   42.0930 H   0  0  0  0  0  0  0  0  0  0  0  0
  110.2821   65.1841   42.8836 H   0  0  0  0  0  0  0  0  0  0  0  0
  1  2  2  0
  1  3  1  0
  2  6  1  0
  3  7  2  0
  4  5  2  0
  4  8  1  0
  5  9  1  0
  6 10  2  0
  7 10  1  0
  8 11  2  0
  9 12  2  0
  9 21  1  0
 10 26  1  0
 11 12  1  0
 11 25  1  0
 12 27  1  0
 13 16  2  0
 13 17  1  0
 14 15  2  0
 14 20  1  0
 15 17  1  0
 15 25  1  0
 16 19  1  0
 16 20  1  0
 17 23  2  0
 18 20  1  0
 19 26  1  0
 21 22  1  0
 21 24  2  0
  1 28  1  0
  2 29  1  0
  3 30  1  0
  4 31  1  0
  5 32  1  0
  6 33  1  0
  7 34  1  0
  8 35  1  0
 13 36  1  0
 14 37  1  0
 18 38  1  0
 18 39  1  0
 18 40  1  0
 19 41  1  0
 19 42  1  0
M  CHG  2  21   1  22  -1
M  END
>  <Name>  (114) 
CHEMBL3621751

>  <Comment>  (114) 
 Schrodinger Suite 2021-4.

>  <s_m_entry_id>  (114) 
1181

>  <class_value>  (114) 
1

>  <s_m_Source_Path>  (114) 
C:\Users\vinicius\Desktop

>  <s_m_Source_File>  (114) 
Ligands_Saureus_o.sdf

>  <i_m_Source_File_Index>  (114) 
85

>  <r_lp_tautomer_probability>  (114) 
1

>  <r_epik_Ionization_Penalty>  (114) 
0

>  <r_epik_State_Penalty>  (114) 
0

>  <i_epik_Tot_Q>  (114) 
0

>  <i_f3d_flags>  (114) 
0

>  <s_m_job_name>  (114) 
Saureus_o

>  <FRED Chemgauss4 score>  (114) 
-11.800693

>  <Set>  (114) 
training

>  <HBA count>  (114) 
6

>  <HBD count>  (114) 
0

>  <ExactMolWt>  (114) 
386.0669492600003

>  <NumRotatableBounds>  (114) 
7

>  <FractionCsp3>  (114) 
0.10526315789473684

>  <TPSA>  (114) 
83.60000000000001

>  <LogP_WildmanCrippen>  (114) 
4.318200000000003

>  <General_Cluster>  (114) 
1

>  <Biological_Cluster>  (114) 
1

>  <Physicochemical_Cluster>  (114) 
1

>  <Structural_Cluster>  (114) 
5

$$$$
CHEMBL3623394
     RDKit          3D

 36 38  0  0  0  0  0  0  0  0999 V2000
  107.3718   62.9202   45.1926 C   0  0  0  0  0  0  0  0  0  0  0  0
  107.2050   64.2755   44.9081 C   0  0  0  0  0  0  0  0  0  0  0  0
  108.1999   62.1358   44.3898 C   0  0  0  0  0  0  0  0  0  0  0  0
  109.5489   68.9147   33.8779 C   0  0  0  0  0  0  0  0  0  0  0  0
  107.8662   64.8464   43.8206 C   0  0  0  0  0  0  0  0  0  0  0  0
  108.8611   62.7066   43.3023 C   0  0  0  0  0  0  0  0  0  0  0  0
  110.2237   69.9523   34.5209 C   0  0  0  0  0  0  0  0  0  0  0  0
  109.6524   67.6103   34.3612 C   0  0  0  0  0  0  0  0  0  0  0  0
  108.6943   64.0619   43.0177 C   0  0  0  0  0  0  0  0  0  0  0  0
  111.1059   68.3812   36.1305 C   0  0  0  0  0  0  0  0  0  0  0  0
  111.0022   69.6856   35.6471 C   0  0  0  0  0  0  0  0  0  0  0  0
  110.4309   67.3436   35.4875 C   0  0  0  0  0  0  0  0  0  0  0  0
  110.9212   65.7254   40.0078 C   0  0  0  0  0  0  0  0  0  0  0  0
  110.2201   68.1861   38.9446 C   0  0  0  0  0  0  0  0  0  0  0  0
  111.2300   67.5697   38.3208 C   0  0  0  0  0  0  0  0  0  0  0  0
  109.9254   66.4538   40.5342 C   0  0  0  0  0  0  0  0  0  0  0  0
  111.6583   66.2486   38.8351 C   0  0  0  0  0  0  0  0  0  0  0  0
  109.1274   66.0040   41.7151 C   0  0  0  0  0  0  0  0  0  0  0  0
  112.5739   65.6161   38.3225 O   0  0  0  0  0  0  0  0  0  0  0  0
  109.5433   67.6885   40.0320 O   0  0  0  0  0  0  0  0  0  0  0  0
  111.8688   68.1194   37.2357 O   0  0  0  0  0  0  0  0  0  0  0  0
  109.3438   64.6227   41.9466 O   0  0  0  0  0  0  0  0  0  0  0  0
  111.8247   70.9917   36.4188 Cl  0  0  0  0  0  0  0  0  0  0  0  0
  110.5405   65.7191   36.0596 Cl  0  0  0  0  0  0  0  0  0  0  0  0
  106.8503   62.4700   46.0501 H   0  0  0  0  0  0  0  0  0  0  0  0
  106.5520   64.8941   45.5413 H   0  0  0  0  0  0  0  0  0  0  0  0
  108.3315   61.0670   44.6143 H   0  0  0  0  0  0  0  0  0  0  0  0
  108.9351   69.1250   32.9896 H   0  0  0  0  0  0  0  0  0  0  0  0
  107.7346   65.9152   43.5962 H   0  0  0  0  0  0  0  0  0  0  0  0
  109.5141   62.0879   42.6691 H   0  0  0  0  0  0  0  0  0  0  0  0
  110.1419   70.9809   34.1398 H   0  0  0  0  0  0  0  0  0  0  0  0
  109.1201   66.7920   33.8542 H   0  0  0  0  0  0  0  0  0  0  0  0
  111.1872   64.7505   40.4424 H   0  0  0  0  0  0  0  0  0  0  0  0
  109.9072   69.1670   38.5573 H   0  0  0  0  0  0  0  0  0  0  0  0
  109.4364   66.5753   42.6029 H   0  0  0  0  0  0  0  0  0  0  0  0
  108.0591   66.1745   41.5160 H   0  0  0  0  0  0  0  0  0  0  0  0
  1  2  2  0
  1  3  1  0
  2  5  1  0
  3  6  2  0
  4  7  2  0
  4  8  1  0
  5  9  2  0
  6  9  1  0
  7 11  1  0
  8 12  2  0
  9 22  1  0
 10 11  2  0
 10 12  1  0
 10 21  1  0
 11 23  1  0
 12 24  1  0
 13 16  2  0
 13 17  1  0
 14 15  2  0
 14 20  1  0
 15 17  1  0
 15 21  1  0
 16 18  1  0
 16 20  1  0
 17 19  2  0
 18 22  1  0
  1 25  1  0
  2 26  1  0
  3 27  1  0
  4 28  1  0
  5 29  1  0
  6 30  1  0
  7 31  1  0
  8 32  1  0
 13 33  1  0
 14 34  1  0
 18 35  1  0
 18 36  1  0
M  END
>  <Name>  (115) 
CHEMBL3623394

>  <Comment>  (115) 
 Schrodinger Suite 2021-4.

>  <s_m_entry_id>  (115) 
1206

>  <class_value>  (115) 
0

>  <s_m_Source_Path>  (115) 
C:\Users\vinicius\Desktop

>  <s_m_Source_File>  (115) 
Ligands_Saureus_o.sdf

>  <i_m_Source_File_Index>  (115) 
104

>  <r_lp_tautomer_probability>  (115) 
1

>  <r_epik_Ionization_Penalty>  (115) 
0

>  <r_epik_State_Penalty>  (115) 
0

>  <i_epik_Tot_Q>  (115) 
0

>  <i_f3d_flags>  (115) 
0

>  <s_m_job_name>  (115) 
Saureus_o

>  <FRED Chemgauss4 score>  (115) 
-12.523290

>  <Set>  (115) 
training

>  <HBA count>  (115) 
4

>  <HBD count>  (115) 
0

>  <ExactMolWt>  (115) 
362.0112642240003

>  <NumRotatableBounds>  (115) 
5

>  <FractionCsp3>  (115) 
0.05555555555555555

>  <TPSA>  (115) 
48.67

>  <LogP_WildmanCrippen>  (115) 
5.317900000000002

>  <General_Cluster>  (115) 
4

>  <Biological_Cluster>  (115) 
2

>  <Physicochemical_Cluster>  (115) 
3

>  <Structural_Cluster>  (115) 
1

$$$$
CHEMBL3952059
     RDKit          3D

 52 56  0  0  1  0  0  0  0  0999 V2000
  105.7716   61.8756   44.0882 C   0  0  0  0  0  0  0  0  0  0  0  0
  105.4353   62.7699   45.1119 C   0  0  0  0  0  0  0  0  0  0  0  0
  106.7704   62.1828   43.1528 C   0  0  0  0  0  0  0  0  0  0  0  0
  106.0803   64.0044   45.2438 C   0  0  0  0  0  0  0  0  0  0  0  0
  110.4058   68.0000   36.2726 C   0  0  0  0  0  0  0  0  0  0  0  0
  110.7040   65.7762   35.4931 C   0  0  0  0  0  0  0  0  0  0  0  0
  110.6185   66.6567   36.5570 C   0  0  0  0  0  0  0  0  0  0  0  0
  110.3060   68.4225   34.9462 C   0  0  0  0  0  0  0  0  0  0  0  0
  107.4266   63.4163   43.2709 C   0  0  0  0  0  0  0  0  0  0  0  0
  107.0631   64.2732   44.2992 C   0  0  0  0  0  0  0  0  0  0  0  0
  110.4118   67.4599   33.9429 C   0  0  0  0  0  0  0  0  0  0  0  0
  108.6234   65.1461   43.1168 C   0  0  0  0  0  0  0  0  0  0  0  0
  110.2477   69.1732   32.1757 C   0  0  0  0  0  0  0  0  0  0  0  0
  110.7339   66.1825   37.9471 C   0  0  0  0  0  0  0  0  0  0  0  0
  110.2874   66.8430   39.0258 C   0  0  0  0  0  0  0  0  0  0  0  0
  110.4352   66.3305   40.4025 C   0  0  0  0  0  0  0  0  0  0  0  0
  109.9822   69.8437   34.5981 C   0  0  0  0  0  0  0  0  0  0  0  0
  110.5537   70.2098   33.2375 C   0  0  0  0  0  0  0  0  0  0  0  0
  108.5189   68.4836   43.3913 C   0  0  0  0  0  0  0  0  0  0  0  0
  108.3656   68.8057   41.9067 C   0  0  0  0  0  0  0  0  0  0  0  0
  109.6680   67.5025   43.6452 C   0  0  0  0  0  0  0  0  0  0  0  0
  108.2863   67.5302   41.0776 C   0  0  0  0  0  0  0  0  0  0  0  0
  109.6183   66.2446   42.7478 C   0  0  2  0  0  0  0  0  0  0  0  0
  110.5984   66.1429   34.1963 N   0  0  0  0  0  0  0  0  0  0  0  0
  108.4264   63.9896   42.5230 N   0  0  0  0  0  0  0  0  0  0  0  0
  110.2896   67.8592   32.5982 N   0  0  0  0  0  0  0  0  0  0  0  0
  109.4628   66.6856   41.3389 N   0  0  0  0  0  0  0  0  0  0  0  0
  110.0705   69.4947   31.0008 O   0  0  0  0  0  0  0  0  0  0  0  0
  111.4140   65.6211   40.6422 O   0  0  0  0  0  0  0  0  0  0  0  0
  107.8370   65.3940   44.2014 O   0  0  0  0  0  0  0  0  0  0  0  0
  105.2424   60.9140   44.0163 H   0  0  0  0  0  0  0  0  0  0  0  0
  104.6467   62.4958   45.8281 H   0  0  0  0  0  0  0  0  0  0  0  0
  107.0312   61.4771   42.3504 H   0  0  0  0  0  0  0  0  0  0  0  0
  105.8259   64.7158   46.0433 H   0  0  0  0  0  0  0  0  0  0  0  0
  110.3162   68.7291   37.0914 H   0  0  0  0  0  0  0  0  0  0  0  0
  110.8681   64.7117   35.7164 H   0  0  0  0  0  0  0  0  0  0  0  0
  111.2241   65.2119   38.1132 H   0  0  0  0  0  0  0  0  0  0  0  0
  109.7878   67.8117   38.8778 H   0  0  0  0  0  0  0  0  0  0  0  0
  108.8897   69.9697   34.5761 H   0  0  0  0  0  0  0  0  0  0  0  0
  110.4284   70.5031   35.3571 H   0  0  0  0  0  0  0  0  0  0  0  0
  111.6455   70.3076   33.3293 H   0  0  0  0  0  0  0  0  0  0  0  0
  110.0852   71.1544   32.9240 H   0  0  0  0  0  0  0  0  0  0  0  0
  108.7194   69.4162   43.9391 H   0  0  0  0  0  0  0  0  0  0  0  0
  107.5861   68.0144   43.7374 H   0  0  0  0  0  0  0  0  0  0  0  0
  107.4450   69.3892   41.7582 H   0  0  0  0  0  0  0  0  0  0  0  0
  109.2437   69.3823   41.5803 H   0  0  0  0  0  0  0  0  0  0  0  0
  110.6183   68.0246   43.4597 H   0  0  0  0  0  0  0  0  0  0  0  0
  109.5750   67.1596   44.6862 H   0  0  0  0  0  0  0  0  0  0  0  0
  107.3741   66.9773   41.3463 H   0  0  0  0  0  0  0  0  0  0  0  0
  108.2617   67.7946   40.0101 H   0  0  0  0  0  0  0  0  0  0  0  0
  110.5746   65.7275   42.9156 H   0  0  0  0  0  0  0  0  0  0  0  0
  110.2273   67.1218   31.8817 H   0  0  0  0  0  0  0  0  0  0  0  0
  1  2  2  0
  1  3  1  0
  2  4  1  0
  3  9  2  0
  4 10  2  0
  5  7  2  0
  5  8  1  0
  6  7  1  0
  6 24  2  0
  7 14  1  0
  8 11  2  0
  8 17  1  0
  9 10  1  0
  9 25  1  0
 10 30  1  0
 11 24  1  0
 11 26  1  0
 12 23  1  0
 12 25  2  0
 12 30  1  0
 13 18  1  0
 13 26  1  0
 13 28  2  0
 14 15  2  0
 15 16  1  0
 16 27  1  0
 16 29  2  0
 17 18  1  0
 19 20  1  0
 19 21  1  0
 20 22  1  0
 21 23  1  0
 22 27  1  0
 23 27  1  0
  1 31  1  0
  2 32  1  0
  3 33  1  0
  4 34  1  0
  5 35  1  0
  6 36  1  0
 14 37  1  0
 15 38  1  0
 17 39  1  0
 17 40  1  0
 18 41  1  0
 18 42  1  0
 19 43  1  0
 19 44  1  0
 20 45  1  0
 20 46  1  0
 21 47  1  0
 21 48  1  0
 22 49  1  0
 22 50  1  0
 23 51  1  6
 26 52  1  0
M  END
>  <Name>  (116) 
CHEMBL3952059

>  <Comment>  (116) 
 Schrodinger Suite 2021-4.

>  <s_m_entry_id>  (116) 
1219

>  <class_value>  (116) 
0

>  <s_m_Source_Path>  (116) 
C:\Users\vinicius\Desktop

>  <s_m_Source_File>  (116) 
Ligands_Saureus_o.sdf

>  <i_m_Source_File_Index>  (116) 
114

>  <r_lp_tautomer_probability>  (116) 
1

>  <r_epik_Ionization_Penalty>  (116) 
0.0002

>  <r_epik_State_Penalty>  (116) 
0

>  <i_epik_Tot_Q>  (116) 
0

>  <i_f3d_flags>  (116) 
0

>  <s_m_job_name>  (116) 
Saureus_o

>  <FRED Chemgauss4 score>  (116) 
-11.252048

>  <Set>  (116) 
training

>  <HBA count>  (116) 
5

>  <HBD count>  (116) 
1

>  <ExactMolWt>  (116) 
402.16919056400064

>  <NumRotatableBounds>  (116) 
3

>  <FractionCsp3>  (116) 
0.30434782608695654

>  <TPSA>  (116) 
88.33

>  <LogP_WildmanCrippen>  (116) 
3.874500000000003

>  <General_Cluster>  (116) 
1

>  <Biological_Cluster>  (116) 
2

>  <Physicochemical_Cluster>  (116) 
1

>  <Structural_Cluster>  (116) 
2

$$$$
CHEMBL567311
     RDKit          3D

 54 57  0  0  0  0  0  0  0  0999 V2000
  112.1308   72.7744   35.5323 C   0  0  0  0  0  0  0  0  0  0  0  0
  112.3750   72.1531   36.7598 C   0  0  0  0  0  0  0  0  0  0  0  0
  111.4542   72.1036   34.5044 C   0  0  0  0  0  0  0  0  0  0  0  0
  111.9538   70.8429   37.0058 C   0  0  0  0  0  0  0  0  0  0  0  0
  109.9751   66.7508   39.5311 C   0  0  0  0  0  0  0  0  0  0  0  0
  112.2448   66.4818   40.1139 C   0  0  0  0  0  0  0  0  0  0  0  0
  111.0215   70.7852   34.7301 C   0  0  0  0  0  0  0  0  0  0  0  0
  111.2776   66.4897   39.1355 C   0  0  0  0  0  0  0  0  0  0  0  0
  109.6657   67.0055   40.8787 C   0  0  0  0  0  0  0  0  0  0  0  0
  110.3298   69.7999   33.9772 C   0  0  0  0  0  0  0  0  0  0  0  0
  111.2839   70.2018   35.9654 C   0  0  0  0  0  0  0  0  0  0  0  0
  110.2178   68.6971   34.7920 C   0  0  0  0  0  0  0  0  0  0  0  0
  110.7228   67.0191   41.8078 C   0  0  0  0  0  0  0  0  0  0  0  0
  107.8632   66.3176   43.5969 C   0  0  0  0  0  0  0  0  0  0  0  0
  111.6058   66.2180   37.7485 C   0  0  0  0  0  0  0  0  0  0  0  0
  110.7280   65.8128   36.8001 C   0  0  0  0  0  0  0  0  0  0  0  0
  111.1963   65.5334   35.4106 C   0  0  0  0  0  0  0  0  0  0  0  0
  108.2122   67.1870   41.2416 C   0  0  0  0  0  0  0  0  0  0  0  0
  108.3331   67.6298   44.1985 C   0  0  0  0  0  0  0  0  0  0  0  0
  109.6056   68.2683   43.6560 C   0  0  0  0  0  0  0  0  0  0  0  0
  109.8290   69.9296   32.5954 C   0  0  0  0  0  0  0  0  0  0  0  0
  111.0009   66.0719   33.0131 C   0  0  0  0  0  0  0  0  0  0  0  0
  109.6049   67.3390   34.6072 C   0  0  0  0  0  0  0  0  0  0  0  0
  111.9964   66.7306   41.4178 N   0  0  0  0  0  0  0  0  0  0  0  0
  110.5667   67.3063   43.1575 N   0  0  0  0  0  0  0  0  0  0  0  0
  107.7876   66.2113   42.2305 N   0  0  0  0  0  0  0  0  0  0  0  0
  110.6176   66.3055   34.3994 N   0  0  0  0  0  0  0  0  0  0  0  0
  107.5079   65.3935   44.3342 O   0  0  0  0  0  0  0  0  0  0  0  0
  112.0282   64.6468   35.2120 O   0  0  0  0  0  0  0  0  0  0  0  0
  110.7936   68.9307   36.0002 O   0  0  0  0  0  0  0  0  0  0  0  0
  112.4751   73.8065   35.3701 H   0  0  0  0  0  0  0  0  0  0  0  0
  112.9087   72.7052   37.5474 H   0  0  0  0  0  0  0  0  0  0  0  0
  111.2655   72.5988   33.5404 H   0  0  0  0  0  0  0  0  0  0  0  0
  112.1410   70.3449   37.9686 H   0  0  0  0  0  0  0  0  0  0  0  0
  109.1718   66.7589   38.7797 H   0  0  0  0  0  0  0  0  0  0  0  0
  113.2805   66.2600   39.8169 H   0  0  0  0  0  0  0  0  0  0  0  0
  112.6537   66.3522   37.4421 H   0  0  0  0  0  0  0  0  0  0  0  0
  109.6651   65.6890   37.0549 H   0  0  0  0  0  0  0  0  0  0  0  0
  108.0690   68.1977   41.6515 H   0  0  0  0  0  0  0  0  0  0  0  0
  107.6080   67.0452   40.3334 H   0  0  0  0  0  0  0  0  0  0  0  0
  107.5208   68.3586   44.0607 H   0  0  0  0  0  0  0  0  0  0  0  0
  108.5851   67.3725   45.2379 H   0  0  0  0  0  0  0  0  0  0  0  0
  109.3321   68.9456   42.8336 H   0  0  0  0  0  0  0  0  0  0  0  0
  110.0833   68.7997   44.4923 H   0  0  0  0  0  0  0  0  0  0  0  0
  108.7643   70.2053   32.6156 H   0  0  0  0  0  0  0  0  0  0  0  0
  110.3998   70.7095   32.0702 H   0  0  0  0  0  0  0  0  0  0  0  0
  109.9495   68.9706   32.0702 H   0  0  0  0  0  0  0  0  0  0  0  0
  111.9399   65.4996   32.9837 H   0  0  0  0  0  0  0  0  0  0  0  0
  110.2087   65.5029   32.5045 H   0  0  0  0  0  0  0  0  0  0  0  0
  111.1435   67.0368   32.5045 H   0  0  0  0  0  0  0  0  0  0  0  0
  109.0201   67.0881   35.5045 H   0  0  0  0  0  0  0  0  0  0  0  0
  108.9656   67.3733   33.7127 H   0  0  0  0  0  0  0  0  0  0  0  0
  111.1628   66.8116   43.8364 H   0  0  0  0  0  0  0  0  0  0  0  0
  107.3827   65.3381   41.8637 H   0  0  0  0  0  0  0  0  0  0  0  0
  1  2  2  0
  1  3  1  0
  2  4  1  0
  3  7  2  0
  4 11  2  0
  5  8  2  0
  5  9  1  0
  6  8  1  0
  6 24  2  0
  7 10  1  0
  7 11  1  0
  8 15  1  0
  9 13  2  0
  9 18  1  0
 10 12  2  0
 10 21  1  0
 11 30  1  0
 12 23  1  0
 12 30  1  0
 13 24  1  0
 13 25  1  0
 14 19  1  0
 14 26  1  0
 14 28  2  0
 15 16  2  0
 16 17  1  0
 17 27  1  0
 17 29  2  0
 18 26  1  0
 19 20  1  0
 20 25  1  0
 22 27  1  0
 23 27  1  0
  1 31  1  0
  2 32  1  0
  3 33  1  0
  4 34  1  0
  5 35  1  0
  6 36  1  0
 15 37  1  0
 16 38  1  0
 18 39  1  0
 18 40  1  0
 19 41  1  0
 19 42  1  0
 20 43  1  0
 20 44  1  0
 21 45  1  0
 21 46  1  0
 21 47  1  0
 22 48  1  0
 22 49  1  0
 22 50  1  0
 23 51  1  0
 23 52  1  0
 25 53  1  0
 26 54  1  0
M  END
>  <Name>  (117) 
CHEMBL567311

>  <Comment>  (117) 
 Schrodinger Suite 2021-4.

>  <s_m_entry_id>  (117) 
1360

>  <class_value>  (117) 
1

>  <s_m_Source_Path>  (117) 
C:\Users\vinicius\Desktop

>  <s_m_Source_File>  (117) 
Ligands_Saureus_o.sdf

>  <i_m_Source_File_Index>  (117) 
212

>  <r_epik_Ionization_Penalty>  (117) 
0.0531

>  <r_epik_State_Penalty>  (117) 
0.0455

>  <i_epik_Tot_Q>  (117) 
0

>  <i_f3d_flags>  (117) 
0

>  <s_m_job_name>  (117) 
Saureus_o

>  <FRED Chemgauss4 score>  (117) 
-19.448753

>  <Set>  (117) 
training

>  <HBA count>  (117) 
5

>  <HBD count>  (117) 
2

>  <ExactMolWt>  (117) 
404.1848406280007

>  <NumRotatableBounds>  (117) 
6

>  <FractionCsp3>  (117) 
0.2608695652173913

>  <TPSA>  (117) 
87.47000000000001

>  <LogP_WildmanCrippen>  (117) 
3.2398200000000017

>  <General_Cluster>  (117) 
1

>  <Biological_Cluster>  (117) 
1

>  <Physicochemical_Cluster>  (117) 
1

>  <Structural_Cluster>  (117) 
2

$$$$
CHEMBL3676413
     RDKit          3D

 52 55  0  0  0  0  0  0  0  0999 V2000
  110.1134   62.1010   47.8747 C   0  0  0  0  0  0  0  0  0  0  0  0
  110.7130   66.5838   35.2563 C   0  0  0  0  0  0  0  0  0  0  0  0
  109.3178   61.9678   46.7550 C   0  0  0  0  0  0  0  0  0  0  0  0
  109.8661   63.2126   48.6541 C   0  0  0  0  0  0  0  0  0  0  0  0
  110.5941   68.4626   36.7047 C   0  0  0  0  0  0  0  0  0  0  0  0
  110.6734   67.0900   36.5497 C   0  0  0  0  0  0  0  0  0  0  0  0
  110.6527   67.4542   34.1671 C   0  0  0  0  0  0  0  0  0  0  0  0
  110.5676   68.8218   34.4257 C   0  0  0  0  0  0  0  0  0  0  0  0
  108.2081   63.8881   47.2534 C   0  0  0  0  0  0  0  0  0  0  0  0
  110.3923   69.3438   32.0212 C   0  0  0  0  0  0  0  0  0  0  0  0
  110.7285   66.2084   37.7015 C   0  0  0  0  0  0  0  0  0  0  0  0
  110.3258   66.5188   38.9564 C   0  0  0  0  0  0  0  0  0  0  0  0
  110.4107   65.5906   40.0986 C   0  0  0  0  0  0  0  0  0  0  0  0
  107.5745   65.8050   45.7784 C   0  0  0  0  0  0  0  0  0  0  0  0
  110.7885   66.9590   32.7591 C   0  0  0  0  0  0  0  0  0  0  0  0
  110.0665   67.8822   31.7903 C   0  0  0  0  0  0  0  0  0  0  0  0
  109.2358   65.0413   42.2976 C   0  0  0  0  0  0  0  0  0  0  0  0
  108.3657   66.6956   41.2521 C   0  0  0  0  0  0  0  0  0  0  0  0
  107.9045   65.7980   42.4115 C   0  0  0  0  0  0  0  0  0  0  0  0
  108.3424   67.0563   46.1372 C   0  0  0  0  0  0  0  0  0  0  0  0
  107.1396   64.8902   46.9050 C   0  0  0  0  0  0  0  0  0  0  0  0
  110.5482   69.3393   35.6769 N   0  0  0  0  0  0  0  0  0  0  0  0
  108.3521   62.8458   46.4130 N   0  0  0  0  0  0  0  0  0  0  0  0
  108.9178   64.1300   48.3720 N   0  0  0  0  0  0  0  0  0  0  0  0
  107.2224   65.4908   44.5684 N   0  0  0  0  0  0  0  0  0  0  0  0
  110.5304   69.7205   33.3424 N   0  0  0  0  0  0  0  0  0  0  0  0
  109.4543   65.7599   41.0577 N   0  0  0  0  0  0  0  0  0  0  0  0
  110.4325   70.1449   31.0875 O   0  0  0  0  0  0  0  0  0  0  0  0
  111.3001   64.7440   40.1357 O   0  0  0  0  0  0  0  0  0  0  0  0
  107.6645   66.4584   43.6664 O   0  0  0  0  0  0  0  0  0  0  0  0
  110.8938   61.3688   48.1293 H   0  0  0  0  0  0  0  0  0  0  0  0
  110.7917   65.4991   35.0912 H   0  0  0  0  0  0  0  0  0  0  0  0
  109.4802   61.0960   46.1041 H   0  0  0  0  0  0  0  0  0  0  0  0
  110.4770   63.3591   49.5570 H   0  0  0  0  0  0  0  0  0  0  0  0
  110.5667   68.8654   37.7279 H   0  0  0  0  0  0  0  0  0  0  0  0
  111.1334   65.1984   37.5406 H   0  0  0  0  0  0  0  0  0  0  0  0
  109.9111   67.5220   39.1340 H   0  0  0  0  0  0  0  0  0  0  0  0
  111.8549   66.9188   32.4922 H   0  0  0  0  0  0  0  0  0  0  0  0
  110.3393   65.9571   32.6927 H   0  0  0  0  0  0  0  0  0  0  0  0
  108.9824   67.7402   31.9108 H   0  0  0  0  0  0  0  0  0  0  0  0
  110.4006   67.6242   30.7745 H   0  0  0  0  0  0  0  0  0  0  0  0
  109.9618   65.2649   43.0932 H   0  0  0  0  0  0  0  0  0  0  0  0
  109.2876   63.9438   42.3509 H   0  0  0  0  0  0  0  0  0  0  0  0
  107.6593   66.7609   40.4115 H   0  0  0  0  0  0  0  0  0  0  0  0
  108.5414   67.7733   41.3848 H   0  0  0  0  0  0  0  0  0  0  0  0
  106.9415   65.2681   42.3691 H   0  0  0  0  0  0  0  0  0  0  0  0
  108.3999   67.1500   47.2317 H   0  0  0  0  0  0  0  0  0  0  0  0
  109.3586   66.9950   45.7205 H   0  0  0  0  0  0  0  0  0  0  0  0
  107.8276   67.9346   45.7205 H   0  0  0  0  0  0  0  0  0  0  0  0
  106.2322   64.3507   46.5959 H   0  0  0  0  0  0  0  0  0  0  0  0
  106.9471   65.5089   47.7939 H   0  0  0  0  0  0  0  0  0  0  0  0
  110.6116   70.7262   33.5494 H   0  0  0  0  0  0  0  0  0  0  0  0
  1  3  2  0
  1  4  1  0
  2  6  2  0
  2  7  1  0
  3 23  1  0
  4 24  2  0
  5  6  1  0
  5 22  2  0
  6 11  1  0
  7  8  2  0
  7 15  1  0
  8 22  1  0
  8 26  1  0
  9 21  1  0
  9 23  2  0
  9 24  1  0
 10 16  1  0
 10 26  1  0
 10 28  2  0
 11 12  2  0
 12 13  1  0
 13 27  1  0
 13 29  2  0
 14 20  1  0
 14 21  1  0
 14 25  2  0
 15 16  1  0
 17 19  1  0
 17 27  1  0
 18 19  1  0
 18 27  1  0
 19 30  1  0
 25 30  1  0
  1 31  1  0
  2 32  1  0
  3 33  1  0
  4 34  1  0
  5 35  1  0
 11 36  1  0
 12 37  1  0
 15 38  1  0
 15 39  1  0
 16 40  1  0
 16 41  1  0
 17 42  1  0
 17 43  1  0
 18 44  1  0
 18 45  1  0
 19 46  1  0
 20 47  1  0
 20 48  1  0
 20 49  1  0
 21 50  1  0
 21 51  1  0
 26 52  1  0
M  END
>  <Name>  (118) 
CHEMBL3676413

>  <Comment>  (118) 
 Schrodinger Suite 2021-4.

>  <s_m_entry_id>  (118) 
1190

>  <class_value>  (118) 
1

>  <s_m_Source_Path>  (118) 
C:\Users\vinicius\Desktop

>  <s_m_Source_File>  (118) 
Ligands_Saureus_o.sdf

>  <i_m_Source_File_Index>  (118) 
92

>  <r_lp_tautomer_probability>  (118) 
1

>  <r_epik_Ionization_Penalty>  (118) 
0.0002

>  <r_epik_State_Penalty>  (118) 
0

>  <i_epik_Tot_Q>  (118) 
0

>  <i_f3d_flags>  (118) 
0

>  <s_m_job_name>  (118) 
Saureus_o

>  <FRED Chemgauss4 score>  (118) 
-11.779476

>  <Set>  (118) 
training

>  <HBA count>  (118) 
7

>  <HBD count>  (118) 
1

>  <ExactMolWt>  (118) 
406.1753385640007

>  <NumRotatableBounds>  (118) 
7

>  <FractionCsp3>  (118) 
0.3333333333333333

>  <TPSA>  (118) 
109.67

>  <LogP_WildmanCrippen>  (118) 
1.6154999999999997

>  <General_Cluster>  (118) 
1

>  <Biological_Cluster>  (118) 
1

>  <Physicochemical_Cluster>  (118) 
4

>  <Structural_Cluster>  (118) 
2

$$$$
CHEMBL3623429
     RDKit          3D

 55 57  0  0  0  0  0  0  0  0999 V2000
  106.4104   61.9287   45.0539 C   0  0  0  0  0  0  0  0  0  0  0  0
  107.7810   62.1684   45.1521 C   0  0  0  0  0  0  0  0  0  0  0  0
  105.6955   62.4074   43.9559 C   0  0  0  0  0  0  0  0  0  0  0  0
  109.6724   66.4412   34.9452 C   0  0  0  0  0  0  0  0  0  0  0  0
  108.4367   62.8869   44.1525 C   0  0  0  0  0  0  0  0  0  0  0  0
  106.3513   63.1259   42.9562 C   0  0  0  0  0  0  0  0  0  0  0  0
  110.5039   66.3475   36.0612 C   0  0  0  0  0  0  0  0  0  0  0  0
  109.5920   68.8417   35.2066 C   0  0  0  0  0  0  0  0  0  0  0  0
  109.2165   67.6883   34.5179 C   0  0  0  0  0  0  0  0  0  0  0  0
  110.4235   68.7480   36.3227 C   0  0  0  0  0  0  0  0  0  0  0  0
  107.7219   63.3657   43.0545 C   0  0  0  0  0  0  0  0  0  0  0  0
  110.8794   67.5009   36.7499 C   0  0  0  0  0  0  0  0  0  0  0  0
  110.9995   64.4243   40.1123 C   0  0  0  0  0  0  0  0  0  0  0  0
  110.5106   67.1571   39.8963 C   0  0  0  0  0  0  0  0  0  0  0  0
  111.2326   66.6358   38.8943 C   0  0  0  0  0  0  0  0  0  0  0  0
  110.2846   65.0670   41.0573 C   0  0  0  0  0  0  0  0  0  0  0  0
  111.5303   65.1808   38.9466 C   0  0  0  0  0  0  0  0  0  0  0  0
  108.3287   67.7880   33.3238 C   0  0  0  0  0  0  0  0  0  0  0  0
  110.8166   69.9930   37.0474 C   0  0  0  0  0  0  0  0  0  0  0  0
  110.2234   69.3566   45.0507 C   0  0  0  0  0  0  0  0  0  0  0  0
  109.7552   64.2843   42.2313 C   0  0  0  0  0  0  0  0  0  0  0  0
  109.3145   68.6295   44.0719 C   0  0  0  0  0  0  0  0  0  0  0  0
  110.1208   67.9270   42.9771 C   0  0  0  0  0  0  0  0  0  0  0  0
  109.2389   67.1389   42.0143 C   0  0  0  0  0  0  0  0  0  0  0  0
  110.0158   66.4470   40.9843 N   0  0  0  0  0  0  0  0  0  0  0  0
  112.1844   64.6227   38.0729 O   0  0  0  0  0  0  0  0  0  0  0  0
  111.6944   67.3903   37.8437 O   0  0  0  0  0  0  0  0  0  0  0  0
  108.3672   64.0752   42.0700 O   0  0  0  0  0  0  0  0  0  0  0  0
  105.8933   61.3622   45.8423 H   0  0  0  0  0  0  0  0  0  0  0  0
  108.3447   61.7908   46.0179 H   0  0  0  0  0  0  0  0  0  0  0  0
  104.6147   62.2183   43.8784 H   0  0  0  0  0  0  0  0  0  0  0  0
  109.3762   65.5316   34.4021 H   0  0  0  0  0  0  0  0  0  0  0  0
  109.5175   63.0760   44.2300 H   0  0  0  0  0  0  0  0  0  0  0  0
  105.7876   63.5034   42.0903 H   0  0  0  0  0  0  0  0  0  0  0  0
  110.8635   65.3641   36.3982 H   0  0  0  0  0  0  0  0  0  0  0  0
  109.2324   69.8251   34.8696 H   0  0  0  0  0  0  0  0  0  0  0  0
  111.1896   63.3446   40.2028 H   0  0  0  0  0  0  0  0  0  0  0  0
  110.2919   68.2343   39.8542 H   0  0  0  0  0  0  0  0  0  0  0  0
  107.2852   67.9052   33.6515 H   0  0  0  0  0  0  0  0  0  0  0  0
  108.6233   68.6587   32.7196 H   0  0  0  0  0  0  0  0  0  0  0  0
  108.4228   66.8736   32.7196 H   0  0  0  0  0  0  0  0  0  0  0  0
  110.7616   69.8187   38.1321 H   0  0  0  0  0  0  0  0  0  0  0  0
  111.8454   70.2683   36.7720 H   0  0  0  0  0  0  0  0  0  0  0  0
  110.1324   70.8091   36.7720 H   0  0  0  0  0  0  0  0  0  0  0  0
  109.9213   69.1149   46.0804 H   0  0  0  0  0  0  0  0  0  0  0  0
  111.2642   69.0390   44.8898 H   0  0  0  0  0  0  0  0  0  0  0  0
  110.1421   70.4417   44.8898 H   0  0  0  0  0  0  0  0  0  0  0  0
  110.2685   63.3129   42.2860 H   0  0  0  0  0  0  0  0  0  0  0  0
  109.9361   64.8471   43.1590 H   0  0  0  0  0  0  0  0  0  0  0  0
  108.7257   67.8792   44.6200 H   0  0  0  0  0  0  0  0  0  0  0  0
  108.6559   69.3705   43.5952 H   0  0  0  0  0  0  0  0  0  0  0  0
  110.6755   68.6860   42.4059 H   0  0  0  0  0  0  0  0  0  0  0  0
  110.7988   67.2135   43.4682 H   0  0  0  0  0  0  0  0  0  0  0  0
  108.6690   66.3929   42.5876 H   0  0  0  0  0  0  0  0  0  0  0  0
  108.5730   67.8535   41.5084 H   0  0  0  0  0  0  0  0  0  0  0  0
  1  2  2  0
  1  3  1  0
  2  5  1  0
  3  6  2  0
  4  7  2  0
  4  9  1  0
  5 11  2  0
  6 11  1  0
  7 12  1  0
  8  9  2  0
  8 10  1  0
  9 18  1  0
 10 12  2  0
 10 19  1  0
 11 28  1  0
 12 27  1  0
 13 16  2  0
 13 17  1  0
 14 15  2  0
 14 25  1  0
 15 17  1  0
 15 27  1  0
 16 21  1  0
 16 25  1  0
 17 26  2  0
 20 22  1  0
 21 28  1  0
 22 23  1  0
 23 24  1  0
 24 25  1  0
  1 29  1  0
  2 30  1  0
  3 31  1  0
  4 32  1  0
  5 33  1  0
  6 34  1  0
  7 35  1  0
  8 36  1  0
 13 37  1  0
 14 38  1  0
 18 39  1  0
 18 40  1  0
 18 41  1  0
 19 42  1  0
 19 43  1  0
 19 44  1  0
 20 45  1  0
 20 46  1  0
 20 47  1  0
 21 48  1  0
 21 49  1  0
 22 50  1  0
 22 51  1  0
 23 52  1  0
 23 53  1  0
 24 54  1  0
 24 55  1  0
M  END
>  <Name>  (119) 
CHEMBL3623429

>  <Comment>  (119) 
 Schrodinger Suite 2021-4.

>  <s_m_entry_id>  (119) 
1201

>  <class_value>  (119) 
1

>  <s_m_Source_Path>  (119) 
C:\Users\vinicius\Desktop

>  <s_m_Source_File>  (119) 
Ligands_Saureus_o.sdf

>  <i_m_Source_File_Index>  (119) 
100

>  <r_lp_tautomer_probability>  (119) 
1

>  <r_epik_Ionization_Penalty>  (119) 
0

>  <r_epik_State_Penalty>  (119) 
0

>  <i_epik_Tot_Q>  (119) 
0

>  <i_f3d_flags>  (119) 
0

>  <s_m_job_name>  (119) 
Saureus_o

>  <FRED Chemgauss4 score>  (119) 
-11.432643

>  <Set>  (119) 
training

>  <HBA count>  (119) 
4

>  <HBD count>  (119) 
0

>  <ExactMolWt>  (119) 
377.1990937240007

>  <NumRotatableBounds>  (119) 
11

>  <FractionCsp3>  (119) 
0.2916666666666667

>  <TPSA>  (119) 
40.46

>  <LogP_WildmanCrippen>  (119) 
5.6365400000000045

>  <General_Cluster>  (119) 
1

>  <Biological_Cluster>  (119) 
1

>  <Physicochemical_Cluster>  (119) 
1

>  <Structural_Cluster>  (119) 
5

$$$$
CHEMBL3676419
     RDKit          3D

 58 61  0  0  0  0  0  0  0  0999 V2000
  110.5490   71.8736   30.9497 C   0  0  0  0  0  0  0  0  0  0  0  0
  111.8060   71.9482   33.0116 C   0  0  0  0  0  0  0  0  0  0  0  0
  110.6121   73.2642   30.8609 C   0  0  0  0  0  0  0  0  0  0  0  0
  111.8692   73.3388   32.9228 C   0  0  0  0  0  0  0  0  0  0  0  0
  110.3294   67.0482   39.5770 C   0  0  0  0  0  0  0  0  0  0  0  0
  112.3853   66.0407   40.2184 C   0  0  0  0  0  0  0  0  0  0  0  0
  110.1077   67.3771   40.9144 C   0  0  0  0  0  0  0  0  0  0  0  0
  111.4873   66.3679   39.2170 C   0  0  0  0  0  0  0  0  0  0  0  0
  111.1459   71.2156   32.0251 C   0  0  0  0  0  0  0  0  0  0  0  0
  111.2722   73.9968   31.8474 C   0  0  0  0  0  0  0  0  0  0  0  0
  111.0712   67.0042   41.8487 C   0  0  0  0  0  0  0  0  0  0  0  0
  108.9092   68.0902   41.3474 C   0  0  0  0  0  0  0  0  0  0  0  0
  108.7271   68.3904   42.6408 C   0  0  0  0  0  0  0  0  0  0  0  0
  109.7423   68.0044   43.6652 C   0  0  0  0  0  0  0  0  0  0  0  0
  111.7499   66.0052   37.8134 C   0  0  0  0  0  0  0  0  0  0  0  0
  110.8184   65.9246   36.8516 C   0  0  0  0  0  0  0  0  0  0  0  0
  107.4948   69.1067   42.9866 C   0  0  0  0  0  0  0  0  0  0  0  0
  111.1295   65.5469   35.4586 C   0  0  0  0  0  0  0  0  0  0  0  0
  109.3925   68.2585   33.8143 C   0  0  0  0  0  0  0  0  0  0  0  0
  110.8222   66.9422   32.2013 C   0  0  0  0  0  0  0  0  0  0  0  0
  109.1849   66.9786   34.6209 C   0  0  0  0  0  0  0  0  0  0  0  0
  110.5881   65.6985   33.0574 C   0  0  0  0  0  0  0  0  0  0  0  0
  109.6607   67.9404   32.3341 C   0  0  0  0  0  0  0  0  0  0  0  0
  105.9380   69.3831   44.7325 C   0  0  0  0  0  0  0  0  0  0  0  0
  109.9487   69.2169   31.5477 C   0  0  0  0  0  0  0  0  0  0  0  0
  112.2062   66.3416   41.5240 N   0  0  0  0  0  0  0  0  0  0  0  0
  110.8553   67.3321   43.2001 N   0  0  0  0  0  0  0  0  0  0  0  0
  110.3297   66.0741   34.4490 N   0  0  0  0  0  0  0  0  0  0  0  0
  109.5737   68.2817   44.8512 O   0  0  0  0  0  0  0  0  0  0  0  0
  106.9269   69.8760   42.2288 O   0  0  0  0  0  0  0  0  0  0  0  0
  112.0835   64.7892   35.2734 O   0  0  0  0  0  0  0  0  0  0  0  0
  111.0837   69.8466   32.1126 O   0  0  0  0  0  0  0  0  0  0  0  0
  107.1325   68.7614   44.2475 O   0  0  0  0  0  0  0  0  0  0  0  0
  111.3329   75.3322   31.7621 F   0  0  0  0  0  0  0  0  0  0  0  0
  110.0285   71.2959   30.1717 H   0  0  0  0  0  0  0  0  0  0  0  0
  112.2767   71.4293   33.8596 H   0  0  0  0  0  0  0  0  0  0  0  0
  110.1413   73.7831   30.0129 H   0  0  0  0  0  0  0  0  0  0  0  0
  112.3898   73.9165   33.7008 H   0  0  0  0  0  0  0  0  0  0  0  0
  109.5911   67.3259   38.8103 H   0  0  0  0  0  0  0  0  0  0  0  0
  113.3015   65.5024   39.9340 H   0  0  0  0  0  0  0  0  0  0  0  0
  108.1505   68.3830   40.6067 H   0  0  0  0  0  0  0  0  0  0  0  0
  112.7900   65.7834   37.5325 H   0  0  0  0  0  0  0  0  0  0  0  0
  109.7740   66.1504   37.1129 H   0  0  0  0  0  0  0  0  0  0  0  0
  108.4894   68.8819   33.8902 H   0  0  0  0  0  0  0  0  0  0  0  0
  110.2644   68.7915   34.2215 H   0  0  0  0  0  0  0  0  0  0  0  0
  111.7528   67.4305   32.5261 H   0  0  0  0  0  0  0  0  0  0  0  0
  110.8923   66.6302   31.1488 H   0  0  0  0  0  0  0  0  0  0  0  0
  109.0814   67.2340   35.6858 H   0  0  0  0  0  0  0  0  0  0  0  0
  108.2749   66.4747   34.2631 H   0  0  0  0  0  0  0  0  0  0  0  0
  109.7214   65.1467   32.6646 H   0  0  0  0  0  0  0  0  0  0  0  0
  111.4882   65.0673   33.0209 H   0  0  0  0  0  0  0  0  0  0  0  0
  108.7570   67.4783   31.9101 H   0  0  0  0  0  0  0  0  0  0  0  0
  105.9437   69.3801   45.8325 H   0  0  0  0  0  0  0  0  0  0  0  0
  105.8908   70.4202   44.3689 H   0  0  0  0  0  0  0  0  0  0  0  0
  105.0615   68.8268   44.3689 H   0  0  0  0  0  0  0  0  0  0  0  0
  110.1484   68.9671   30.4952 H   0  0  0  0  0  0  0  0  0  0  0  0
  109.0813   69.8918   31.5942 H   0  0  0  0  0  0  0  0  0  0  0  0
  111.5722   67.0532   43.8851 H   0  0  0  0  0  0  0  0  0  0  0  0
  1  3  2  0
  1  9  1  0
  2  4  1  0
  2  9  2  0
  3 10  1  0
  4 10  2  0
  5  7  2  0
  5  8  1  0
  6  8  2  0
  6 26  1  0
  7 11  1  0
  7 12  1  0
  8 15  1  0
  9 32  1  0
 10 34  1  0
 11 26  2  0
 11 27  1  0
 12 13  2  0
 13 14  1  0
 13 17  1  0
 14 27  1  0
 14 29  2  0
 15 16  2  0
 16 18  1  0
 17 30  2  0
 17 33  1  0
 18 28  1  0
 18 31  2  0
 19 21  1  0
 19 23  1  0
 20 22  1  0
 20 23  1  0
 21 28  1  0
 22 28  1  0
 23 25  1  0
 24 33  1  0
 25 32  1  0
  1 35  1  0
  2 36  1  0
  3 37  1  0
  4 38  1  0
  5 39  1  0
  6 40  1  0
 12 41  1  0
 15 42  1  0
 16 43  1  0
 19 44  1  0
 19 45  1  0
 20 46  1  0
 20 47  1  0
 21 48  1  0
 21 49  1  0
 22 50  1  0
 22 51  1  0
 23 52  1  0
 24 53  1  0
 24 54  1  0
 24 55  1  0
 25 56  1  0
 25 57  1  0
 27 58  1  0
M  END
>  <Name>  (120) 
CHEMBL3676419

>  <Comment>  (120) 
 Schrodinger Suite 2021-4.

>  <s_m_entry_id>  (120) 
1177

>  <class_value>  (120) 
1

>  <s_m_Source_Path>  (120) 
C:\Users\vinicius\Desktop

>  <s_m_Source_File>  (120) 
Ligands_Saureus_o.sdf

>  <i_m_Source_File_Index>  (120) 
83

>  <r_lp_tautomer_probability>  (120) 
1

>  <r_epik_Ionization_Penalty>  (120) 
0.08

>  <r_epik_State_Penalty>  (120) 
0.0708

>  <i_epik_Tot_Q>  (120) 
0

>  <i_f3d_flags>  (120) 
0

>  <s_m_job_name>  (120) 
Saureus_o

>  <FRED Chemgauss4 score>  (120) 
-12.117401

>  <Set>  (120) 
training

>  <HBA count>  (120) 
6

>  <HBD count>  (120) 
1

>  <ExactMolWt>  (120) 
465.1699990880006

>  <NumRotatableBounds>  (120) 
7

>  <FractionCsp3>  (120) 
0.28

>  <TPSA>  (120) 
101.59

>  <LogP_WildmanCrippen>  (120) 
3.1796000000000015

>  <General_Cluster>  (120) 
1

>  <Biological_Cluster>  (120) 
1

>  <Physicochemical_Cluster>  (120) 
4

>  <Structural_Cluster>  (120) 
2

$$$$
CHEMBL3623393
     RDKit          3D

 36 38  0  0  0  0  0  0  0  0999 V2000
  106.5385   62.8020   44.6231 C   0  0  0  0  0  0  0  0  0  0  0  0
  107.7975   62.3230   44.2612 C   0  0  0  0  0  0  0  0  0  0  0  0
  106.0007   63.9118   43.9715 C   0  0  0  0  0  0  0  0  0  0  0  0
  110.4107   66.5001   34.1167 C   0  0  0  0  0  0  0  0  0  0  0  0
  108.5188   62.9540   43.2477 C   0  0  0  0  0  0  0  0  0  0  0  0
  106.7220   64.5428   42.9579 C   0  0  0  0  0  0  0  0  0  0  0  0
  111.1406   66.4347   35.3035 C   0  0  0  0  0  0  0  0  0  0  0  0
  109.8800   67.7176   33.6905 C   0  0  0  0  0  0  0  0  0  0  0  0
  107.9811   64.0639   42.5960 C   0  0  0  0  0  0  0  0  0  0  0  0
  111.3398   67.5868   36.0641 C   0  0  0  0  0  0  0  0  0  0  0  0
  110.0792   68.8698   34.4511 C   0  0  0  0  0  0  0  0  0  0  0  0
  110.8091   68.8044   35.6380 C   0  0  0  0  0  0  0  0  0  0  0  0
  111.4264   64.3764   39.2805 C   0  0  0  0  0  0  0  0  0  0  0  0
  110.7270   67.0538   39.1397 C   0  0  0  0  0  0  0  0  0  0  0  0
  111.5753   66.6423   38.1911 C   0  0  0  0  0  0  0  0  0  0  0  0
  110.5833   64.9241   40.1685 C   0  0  0  0  0  0  0  0  0  0  0  0
  111.9925   65.2213   38.2045 C   0  0  0  0  0  0  0  0  0  0  0  0
  109.9635   64.1475   41.2851 C   0  0  0  0  0  0  0  0  0  0  0  0
  112.7654   64.7618   37.3721 O   0  0  0  0  0  0  0  0  0  0  0  0
  110.2078   66.2585   40.1326 O   0  0  0  0  0  0  0  0  0  0  0  0
  112.0611   67.4870   37.2226 O   0  0  0  0  0  0  0  0  0  0  0  0
  108.6911   64.6861   41.5998 O   0  0  0  0  0  0  0  0  0  0  0  0
  109.3932   70.3455   33.8657 Cl  0  0  0  0  0  0  0  0  0  0  0  0
  111.0755   70.2173   36.6070 Cl  0  0  0  0  0  0  0  0  0  0  0  0
  105.9697   62.3045   45.4224 H   0  0  0  0  0  0  0  0  0  0  0  0
  108.2215   61.4477   44.7750 H   0  0  0  0  0  0  0  0  0  0  0  0
  105.0078   64.2894   44.2569 H   0  0  0  0  0  0  0  0  0  0  0  0
  110.2536   65.5915   33.5169 H   0  0  0  0  0  0  0  0  0  0  0  0
  109.5117   62.5763   42.9623 H   0  0  0  0  0  0  0  0  0  0  0  0
  106.2979   65.4180   42.4440 H   0  0  0  0  0  0  0  0  0  0  0  0
  111.5591   65.4746   35.6396 H   0  0  0  0  0  0  0  0  0  0  0  0
  109.3044   67.7691   32.7546 H   0  0  0  0  0  0  0  0  0  0  0  0
  111.6941   63.3118   39.3509 H   0  0  0  0  0  0  0  0  0  0  0  0
  110.4214   68.1104   39.1238 H   0  0  0  0  0  0  0  0  0  0  0  0
  109.8493   63.0971   40.9792 H   0  0  0  0  0  0  0  0  0  0  0  0
  110.6117   64.2085   42.1718 H   0  0  0  0  0  0  0  0  0  0  0  0
  1  2  2  0
  1  3  1  0
  2  5  1  0
  3  6  2  0
  4  7  2  0
  4  8  1  0
  5  9  2  0
  6  9  1  0
  7 10  1  0
  8 11  2  0
  9 22  1  0
 10 12  2  0
 10 21  1  0
 11 12  1  0
 11 23  1  0
 12 24  1  0
 13 16  2  0
 13 17  1  0
 14 15  2  0
 14 20  1  0
 15 17  1  0
 15 21  1  0
 16 18  1  0
 16 20  1  0
 17 19  2  0
 18 22  1  0
  1 25  1  0
  2 26  1  0
  3 27  1  0
  4 28  1  0
  5 29  1  0
  6 30  1  0
  7 31  1  0
  8 32  1  0
 13 33  1  0
 14 34  1  0
 18 35  1  0
 18 36  1  0
M  END
>  <Name>  (121) 
CHEMBL3623393

>  <Comment>  (121) 
 Schrodinger Suite 2021-4.

>  <s_m_entry_id>  (121) 
1204

>  <class_value>  (121) 
0

>  <s_m_Source_Path>  (121) 
C:\Users\vinicius\Desktop

>  <s_m_Source_File>  (121) 
Ligands_Saureus_o.sdf

>  <i_m_Source_File_Index>  (121) 
102

>  <r_lp_tautomer_probability>  (121) 
1

>  <r_epik_Ionization_Penalty>  (121) 
0

>  <r_epik_State_Penalty>  (121) 
0

>  <i_epik_Tot_Q>  (121) 
0

>  <i_f3d_flags>  (121) 
0

>  <s_m_job_name>  (121) 
Saureus_o

>  <FRED Chemgauss4 score>  (121) 
-12.677883

>  <Set>  (121) 
training

>  <HBA count>  (121) 
4

>  <HBD count>  (121) 
0

>  <ExactMolWt>  (121) 
362.0112642240003

>  <NumRotatableBounds>  (121) 
5

>  <FractionCsp3>  (121) 
0.05555555555555555

>  <TPSA>  (121) 
48.67

>  <LogP_WildmanCrippen>  (121) 
5.317900000000002

>  <General_Cluster>  (121) 
4

>  <Biological_Cluster>  (121) 
2

>  <Physicochemical_Cluster>  (121) 
3

>  <Structural_Cluster>  (121) 
1

$$$$
CHEMBL74072
     RDKit          3D

 49 53  0  0  1  0  0  0  0  0999 V2000
  109.8158   65.3036   42.5634 C   0  0  0  0  0  0  0  0  0  0  0  0
  108.8800   66.3356   42.5505 C   0  0  0  0  0  0  0  0  0  0  0  0
  110.5205   64.9614   41.4038 C   0  0  0  0  0  0  0  0  0  0  0  0
  111.9103   67.5902   33.2900 C   0  0  0  0  0  0  0  0  0  0  0  0
  109.7131   66.5863   33.3293 C   0  0  0  0  0  0  0  0  0  0  0  0
  109.8389   69.1203   35.6575 C   0  0  0  0  0  0  0  0  0  0  0  0
  111.8637   68.8952   36.9562 C   0  0  0  0  0  0  0  0  0  0  0  0
  108.6180   67.0560   41.3819 C   0  0  0  0  0  0  0  0  0  0  0  0
  111.4643   68.5300   32.3609 C   0  0  0  0  0  0  0  0  0  0  0  0
  109.2671   67.5262   32.4001 C   0  0  0  0  0  0  0  0  0  0  0  0
  110.1428   70.4600   35.4160 C   0  0  0  0  0  0  0  0  0  0  0  0
  112.1676   70.2350   36.7147 C   0  0  0  0  0  0  0  0  0  0  0  0
  110.2762   65.6749   40.2130 C   0  0  0  0  0  0  0  0  0  0  0  0
  111.0347   66.6182   33.7742 C   0  0  0  0  0  0  0  0  0  0  0  0
  110.6994   68.3379   36.4277 C   0  0  0  0  0  0  0  0  0  0  0  0
  110.7878   65.6068   38.8883 C   0  0  0  0  0  0  0  0  0  0  0  0
  109.3295   66.7041   40.2293 C   0  0  0  0  0  0  0  0  0  0  0  0
  110.1427   68.4981   31.9160 C   0  0  0  0  0  0  0  0  0  0  0  0
  111.3071   71.0174   35.9445 C   0  0  0  0  0  0  0  0  0  0  0  0
  110.1593   66.5808   38.1437 C   0  0  0  0  0  0  0  0  0  0  0  0
  111.5038   65.6291   34.7522 C   0  0  0  0  0  0  0  0  0  0  0  0
  111.7959   64.7024   38.2845 C   0  0  0  0  0  0  0  0  0  0  0  0
  112.4060   65.3483   37.0331 C   0  0  0  0  0  0  0  0  0  0  0  0
  110.3685   66.8769   36.6906 C   0  0  2  0  0  0  0  0  0  0  0  0
  109.2716   67.2307   38.9571 N   0  0  0  0  0  0  0  0  0  0  0  0
  111.3907   65.9297   36.1213 N   0  0  0  0  0  0  0  0  0  0  0  0
  111.9763   64.5948   34.2814 O   0  0  0  0  0  0  0  0  0  0  0  0
  109.7073   69.4150   31.0092 O   0  0  0  0  0  0  0  0  0  0  0  0
  111.6040   72.3244   35.7077 O   0  0  0  0  0  0  0  0  0  0  0  0
  110.0030   64.7512   43.4961 H   0  0  0  0  0  0  0  0  0  0  0  0
  108.3389   66.5874   43.4745 H   0  0  0  0  0  0  0  0  0  0  0  0
  111.2570   64.1445   41.4214 H   0  0  0  0  0  0  0  0  0  0  0  0
  112.9525   67.6155   33.6409 H   0  0  0  0  0  0  0  0  0  0  0  0
  109.0226   65.8199   33.7112 H   0  0  0  0  0  0  0  0  0  0  0  0
  108.9207   68.6808   35.2406 H   0  0  0  0  0  0  0  0  0  0  0  0
  112.5423   68.2781   37.5635 H   0  0  0  0  0  0  0  0  0  0  0  0
  107.8789   67.8706   41.3686 H   0  0  0  0  0  0  0  0  0  0  0  0
  112.1548   69.2964   31.9790 H   0  0  0  0  0  0  0  0  0  0  0  0
  108.2249   67.5009   32.0491 H   0  0  0  0  0  0  0  0  0  0  0  0
  109.4642   71.0770   34.8087 H   0  0  0  0  0  0  0  0  0  0  0  0
  113.0858   70.6745   37.1316 H   0  0  0  0  0  0  0  0  0  0  0  0
  112.5926   64.5058   39.0170 H   0  0  0  0  0  0  0  0  0  0  0  0
  111.3067   63.7594   37.9993 H   0  0  0  0  0  0  0  0  0  0  0  0
  113.0897   66.1492   37.3511 H   0  0  0  0  0  0  0  0  0  0  0  0
  112.9282   64.5553   36.4776 H   0  0  0  0  0  0  0  0  0  0  0  0
  109.4175   66.7089   36.1639 H   0  0  0  0  0  0  0  0  0  0  0  0
  108.6523   67.9991   38.6624 H   0  0  0  0  0  0  0  0  0  0  0  0
  108.7692   69.3922   30.6936 H   0  0  0  0  0  0  0  0  0  0  0  0
  112.4303   72.7201   36.0828 H   0  0  0  0  0  0  0  0  0  0  0  0
  1  2  2  0
  1  3  1  0
  2  8  1  0
  3 13  2  0
  4  9  2  0
  4 14  1  0
  5 10  1  0
  5 14  2  0
  6 11  2  0
  6 15  1  0
  7 12  1  0
  7 15  2  0
  8 17  2  0
  9 18  1  0
 10 18  2  0
 11 19  1  0
 12 19  2  0
 13 16  1  0
 13 17  1  0
 14 21  1  0
 15 24  1  0
 16 20  2  0
 16 22  1  0
 17 25  1  0
 18 28  1  0
 19 29  1  0
 20 24  1  0
 20 25  1  0
 21 26  1  0
 21 27  2  0
 22 23  1  0
 23 26  1  0
 24 26  1  0
  1 30  1  0
  2 31  1  0
  3 32  1  0
  4 33  1  0
  5 34  1  0
  6 35  1  0
  7 36  1  0
  8 37  1  0
  9 38  1  0
 10 39  1  0
 11 40  1  0
 12 41  1  0
 22 42  1  0
 22 43  1  0
 23 44  1  0
 23 45  1  0
 24 46  1  6
 25 47  1  0
 28 48  1  0
 29 49  1  0
M  END
>  <Name>  (122) 
CHEMBL74072

>  <Comment>  (122) 
 Schrodinger Suite 2021-4.

>  <s_m_entry_id>  (122) 
1486

>  <s_m_Source_Path>  (122) 
C:\Users\vinicius\Desktop

>  <s_m_Source_File>  (122) 
Ligands_Saureus_failomega.smi

>  <i_m_Source_File_Index>  (122) 
31

>  <r_lp_tautomer_probability>  (122) 
0.99999999999473

>  <r_epik_Ionization_Penalty>  (122) 
0.0147

>  <r_epik_State_Penalty>  (122) 
0.0108

>  <i_epik_Tot_Q>  (122) 
0

>  <i_f3d_flags>  (122) 
0

>  <s_m_job_name>  (122) 
Saureus_fail

>  <class_value>  (122) 
0

>  <FRED Chemgauss4 score>  (122) 
-12.610143

>  <Set>  (122) 
training

>  <HBA count>  (122) 
3

>  <HBD count>  (122) 
3

>  <ExactMolWt>  (122) 
384.14739250000054

>  <NumRotatableBounds>  (122) 
4

>  <FractionCsp3>  (122) 
0.125

>  <TPSA>  (122) 
76.56

>  <LogP_WildmanCrippen>  (122) 
4.3670000000000035

>  <General_Cluster>  (122) 
2

>  <Biological_Cluster>  (122) 
2

>  <Physicochemical_Cluster>  (122) 
1

>  <Structural_Cluster>  (122) 
3

$$$$
CHEMBL3623405
     RDKit          3D

 36 38  0  0  0  0  0  0  0  0999 V2000
  110.4166   69.5165   31.8773 C   0  0  0  0  0  0  0  0  0  0  0  0
  110.1560   68.1887   32.2156 C   0  0  0  0  0  0  0  0  0  0  0  0
  110.6953   70.4491   32.8765 C   0  0  0  0  0  0  0  0  0  0  0  0
  110.1739   67.7933   33.5531 C   0  0  0  0  0  0  0  0  0  0  0  0
  110.7132   70.0537   34.2141 C   0  0  0  0  0  0  0  0  0  0  0  0
  109.5466   63.8564   42.4214 C   0  0  0  0  0  0  0  0  0  0  0  0
  108.5268   63.0131   42.8622 C   0  0  0  0  0  0  0  0  0  0  0  0
  107.0521   64.9137   43.0865 C   0  0  0  0  0  0  0  0  0  0  0  0
  110.4525   68.7258   34.5524 C   0  0  0  0  0  0  0  0  0  0  0  0
  109.3192   65.2284   42.3132 C   0  0  0  0  0  0  0  0  0  0  0  0
  107.2795   63.5417   43.1947 C   0  0  0  0  0  0  0  0  0  0  0  0
  108.0720   65.7570   42.6457 C   0  0  0  0  0  0  0  0  0  0  0  0
  111.2991   65.6277   38.2386 C   0  0  0  0  0  0  0  0  0  0  0  0
  109.8079   67.2644   39.9172 C   0  0  0  0  0  0  0  0  0  0  0  0
  110.4300   66.2465   40.5241 C   0  0  0  0  0  0  0  0  0  0  0  0
  110.6200   66.6857   37.7843 C   0  0  0  0  0  0  0  0  0  0  0  0
  111.2454   65.3310   39.6893 C   0  0  0  0  0  0  0  0  0  0  0  0
  110.4715   68.3088   35.9653 C   0  0  0  0  0  0  0  0  0  0  0  0
  110.6171   67.0466   36.3919 C   0  0  0  0  0  0  0  0  0  0  0  0
  111.8460   64.3761   40.1677 O   0  0  0  0  0  0  0  0  0  0  0  0
  109.8655   67.5311   38.5697 O   0  0  0  0  0  0  0  0  0  0  0  0
  110.3374   66.0322   41.8781 O   0  0  0  0  0  0  0  0  0  0  0  0
  106.0222   62.5000   43.7387 Cl  0  0  0  0  0  0  0  0  0  0  0  0
  107.7640   67.4498   42.5216 Cl  0  0  0  0  0  0  0  0  0  0  0  0
  110.4023   69.8283   30.8225 H   0  0  0  0  0  0  0  0  0  0  0  0
  109.9364   67.4533   31.4276 H   0  0  0  0  0  0  0  0  0  0  0  0
  110.9009   71.4962   32.6097 H   0  0  0  0  0  0  0  0  0  0  0  0
  109.9683   66.7461   33.8199 H   0  0  0  0  0  0  0  0  0  0  0  0
  110.9329   70.7891   35.0021 H   0  0  0  0  0  0  0  0  0  0  0  0
  110.5302   63.4395   42.1591 H   0  0  0  0  0  0  0  0  0  0  0  0
  108.7061   61.9312   42.9476 H   0  0  0  0  0  0  0  0  0  0  0  0
  106.0685   65.3306   43.3488 H   0  0  0  0  0  0  0  0  0  0  0  0
  111.8821   64.9943   37.5538 H   0  0  0  0  0  0  0  0  0  0  0  0
  109.2052   67.9383   40.5437 H   0  0  0  0  0  0  0  0  0  0  0  0
  110.3575   69.0931   36.7282 H   0  0  0  0  0  0  0  0  0  0  0  0
  110.7400   66.2503   35.6430 H   0  0  0  0  0  0  0  0  0  0  0  0
  1  2  2  0
  1  3  1  0
  2  4  1  0
  3  5  2  0
  4  9  2  0
  5  9  1  0
  6  7  2  0
  6 10  1  0
  7 11  1  0
  8 11  2  0
  8 12  1  0
  9 18  1  0
 10 12  2  0
 10 22  1  0
 11 23  1  0
 12 24  1  0
 13 16  2  0
 13 17  1  0
 14 15  2  0
 14 21  1  0
 15 17  1  0
 15 22  1  0
 16 19  1  0
 16 21  1  0
 17 20  2  0
 18 19  2  0
  1 25  1  0
  2 26  1  0
  3 27  1  0
  4 28  1  0
  5 29  1  0
  6 30  1  0
  7 31  1  0
  8 32  1  0
 13 33  1  0
 14 34  1  0
 18 35  1  0
 19 36  1  0
M  END
>  <Name>  (123) 
CHEMBL3623405

>  <Comment>  (123) 
 Schrodinger Suite 2021-4.

>  <s_m_entry_id>  (123) 
1241

>  <class_value>  (123) 
0

>  <s_m_Source_Path>  (123) 
C:\Users\vinicius\Desktop

>  <s_m_Source_File>  (123) 
Ligands_Saureus_o.sdf

>  <i_m_Source_File_Index>  (123) 
134

>  <r_lp_tautomer_probability>  (123) 
1

>  <r_epik_Ionization_Penalty>  (123) 
0

>  <r_epik_State_Penalty>  (123) 
0

>  <i_epik_Tot_Q>  (123) 
0

>  <i_f3d_flags>  (123) 
0

>  <s_m_job_name>  (123) 
Saureus_o

>  <FRED Chemgauss4 score>  (123) 
-12.268750

>  <Set>  (123) 
training

>  <HBA count>  (123) 
3

>  <HBD count>  (123) 
0

>  <ExactMolWt>  (123) 
358.0163496040003

>  <NumRotatableBounds>  (123) 
4

>  <FractionCsp3>  (123) 
0.0

>  <TPSA>  (123) 
39.44

>  <LogP_WildmanCrippen>  (123) 
5.909300000000002

>  <General_Cluster>  (123) 
4

>  <Biological_Cluster>  (123) 
2

>  <Physicochemical_Cluster>  (123) 
3

>  <Structural_Cluster>  (123) 
1

$$$$
CHEMBL308525
     RDKit          3D

 51 55  0  0  0  0  0  0  0  0999 V2000
  111.2218   65.4784   33.2188 C   0  0  0  0  0  0  0  0  0  0  0  0
  110.5734   66.6963   33.0257 C   0  0  0  0  0  0  0  0  0  0  0  0
  111.5745   65.0505   34.5037 C   0  0  0  0  0  0  0  0  0  0  0  0
  111.7082   70.5644   36.5131 C   0  0  0  0  0  0  0  0  0  0  0  0
  109.9223   70.5653   34.8860 C   0  0  0  0  0  0  0  0  0  0  0  0
  110.2570   67.5236   34.1068 C   0  0  0  0  0  0  0  0  0  0  0  0
  112.3561   71.5749   35.8026 C   0  0  0  0  0  0  0  0  0  0  0  0
  110.5702   71.5757   34.1754 C   0  0  0  0  0  0  0  0  0  0  0  0
  110.1971   67.8405   41.9295 C   0  0  0  0  0  0  0  0  0  0  0  0
  107.9963   68.2007   42.8589 C   0  0  0  0  0  0  0  0  0  0  0  0
  111.2671   65.8671   35.6104 C   0  0  0  0  0  0  0  0  0  0  0  0
  109.8790   66.5029   41.6946 C   0  0  0  0  0  0  0  0  0  0  0  0
  111.4669   65.7590   37.0135 C   0  0  0  0  0  0  0  0  0  0  0  0
  110.4913   70.0596   36.0548 C   0  0  0  0  0  0  0  0  0  0  0  0
  110.6145   67.0847   35.3869 C   0  0  0  0  0  0  0  0  0  0  0  0
  108.6195   66.0141   42.0418 C   0  0  0  0  0  0  0  0  0  0  0  0
  111.7871   72.0805   34.6338 C   0  0  0  0  0  0  0  0  0  0  0  0
  109.2558   68.6894   42.5117 C   0  0  0  0  0  0  0  0  0  0  0  0
  107.6782   66.8630   42.6239 C   0  0  0  0  0  0  0  0  0  0  0  0
  110.9369   66.8892   37.5992 C   0  0  0  0  0  0  0  0  0  0  0  0
  110.9212   65.6682   41.0778 C   0  0  0  0  0  0  0  0  0  0  0  0
  112.0946   64.6864   37.8317 C   0  0  0  0  0  0  0  0  0  0  0  0
  110.9236   67.2150   39.0491 C   0  0  0  0  0  0  0  0  0  0  0  0
  112.4946   65.2461   39.2077 C   0  0  0  0  0  0  0  0  0  0  0  0
  109.7919   68.9699   36.8215 C   0  0  0  0  0  0  0  0  0  0  0  0
  110.4280   67.6859   36.6140 N   0  0  0  0  0  0  0  0  0  0  0  0
  111.4023   66.0362   39.8157 N   0  0  0  0  0  0  0  0  0  0  0  0
  108.3373   64.7792   41.8203 O   0  0  0  0  0  1  0  0  0  0  0  0
  111.3010   64.6979   41.7319 O   0  0  0  0  0  0  0  0  0  0  0  0
  112.4188   73.0674   33.9413 O   0  0  0  0  0  0  0  0  0  0  0  0
  109.6497   70.3394   42.8025 Cl  0  0  0  0  0  0  0  0  0  0  0  0
  106.0865   66.3411   43.0877 Cl  0  0  0  0  0  0  0  0  0  0  0  0
  111.4593   64.8456   32.3510 H   0  0  0  0  0  0  0  0  0  0  0  0
  110.3063   67.0117   32.0063 H   0  0  0  0  0  0  0  0  0  0  0  0
  112.0860   64.0874   34.6482 H   0  0  0  0  0  0  0  0  0  0  0  0
  112.1569   70.1656   37.4348 H   0  0  0  0  0  0  0  0  0  0  0  0
  108.9626   70.1673   34.5246 H   0  0  0  0  0  0  0  0  0  0  0  0
  109.7451   68.4856   33.9570 H   0  0  0  0  0  0  0  0  0  0  0  0
  113.3157   71.9730   36.1640 H   0  0  0  0  0  0  0  0  0  0  0  0
  110.1215   71.9744   33.2536 H   0  0  0  0  0  0  0  0  0  0  0  0
  111.1903   68.2259   41.6556 H   0  0  0  0  0  0  0  0  0  0  0  0
  107.2539   68.8701   43.3180 H   0  0  0  0  0  0  0  0  0  0  0  0
  111.3774   63.8634   37.9668 H   0  0  0  0  0  0  0  0  0  0  0  0
  112.9925   64.3151   37.3160 H   0  0  0  0  0  0  0  0  0  0  0  0
  111.5856   68.0725   39.2402 H   0  0  0  0  0  0  0  0  0  0  0  0
  109.9007   67.4708   39.3624 H   0  0  0  0  0  0  0  0  0  0  0  0
  112.7422   64.4076   39.8753 H   0  0  0  0  0  0  0  0  0  0  0  0
  113.3613   65.9092   39.0693 H   0  0  0  0  0  0  0  0  0  0  0  0
  109.8184   69.2133   37.8939 H   0  0  0  0  0  0  0  0  0  0  0  0
  108.7545   68.9045   36.4615 H   0  0  0  0  0  0  0  0  0  0  0  0
  112.0151   73.4264   33.1117 H   0  0  0  0  0  0  0  0  0  0  0  0
  1  2  2  0
  1  3  1  0
  2  6  1  0
  3 11  2  0
  4  7  2  0
  4 14  1  0
  5  8  1  0
  5 14  2  0
  6 15  2  0
  7 17  1  0
  8 17  2  0
  9 12  2  0
  9 18  1  0
 10 18  2  0
 10 19  1  0
 11 13  1  0
 11 15  1  0
 12 16  1  0
 12 21  1  0
 13 20  2  0
 13 22  1  0
 14 25  1  0
 15 26  1  0
 16 19  2  0
 16 28  1  0
 17 30  1  0
 18 31  1  0
 19 32  1  0
 20 23  1  0
 20 26  1  0
 21 27  1  0
 21 29  2  0
 22 24  1  0
 23 27  1  0
 24 27  1  0
 25 26  1  0
  1 33  1  0
  2 34  1  0
  3 35  1  0
  4 36  1  0
  5 37  1  0
  6 38  1  0
  7 39  1  0
  8 40  1  0
  9 41  1  0
 10 42  1  0
 22 43  1  0
 22 44  1  0
 23 45  1  0
 23 46  1  0
 24 47  1  0
 24 48  1  0
 25 49  1  0
 25 50  1  0
 30 51  1  0
M  CHG  1  28  -1
M  END
>  <Name>  (124) 
CHEMBL308525

>  <Comment>  (124) 
 Schrodinger Suite 2021-4.

>  <s_m_entry_id>  (124) 
1213

>  <class_value>  (124) 
0

>  <s_m_Source_Path>  (124) 
C:\Users\vinicius\Desktop

>  <s_m_Source_File>  (124) 
Ligands_Saureus_o.sdf

>  <i_m_Source_File_Index>  (124) 
110

>  <r_lp_tautomer_probability>  (124) 
0.999999999997365

>  <r_epik_Ionization_Penalty>  (124) 
0.0632

>  <r_epik_State_Penalty>  (124) 
0.0541

>  <i_epik_Tot_Q>  (124) 
-1

>  <i_f3d_flags>  (124) 
0

>  <s_m_job_name>  (124) 
Saureus_o

>  <FRED Chemgauss4 score>  (124) 
-11.954943

>  <Set>  (124) 
training

>  <HBA count>  (124) 
4

>  <HBD count>  (124) 
1

>  <ExactMolWt>  (124) 
465.0778214079105

>  <NumRotatableBounds>  (124) 
4

>  <FractionCsp3>  (124) 
0.16

>  <TPSA>  (124) 
68.53

>  <LogP_WildmanCrippen>  (124) 
4.9741000000000035

>  <General_Cluster>  (124) 
3

>  <Biological_Cluster>  (124) 
2

>  <Physicochemical_Cluster>  (124) 
1

>  <Structural_Cluster>  (124) 
4

$$$$
CHEMBL3623392
     RDKit          3D

 42 44  0  0  0  0  0  0  0  0999 V2000
  105.8793   62.4002   43.9410 C   0  0  0  0  0  0  0  0  0  0  0  0
  107.2168   62.0388   43.7798 C   0  0  0  0  0  0  0  0  0  0  0  0
  105.4298   63.6361   43.4758 C   0  0  0  0  0  0  0  0  0  0  0  0
  109.3202   66.6597   34.7318 C   0  0  0  0  0  0  0  0  0  0  0  0
  108.1049   62.9132   43.1534 C   0  0  0  0  0  0  0  0  0  0  0  0
  106.3179   64.5105   42.8495 C   0  0  0  0  0  0  0  0  0  0  0  0
  110.2604   66.3941   35.7272 C   0  0  0  0  0  0  0  0  0  0  0  0
  109.7430   69.0270   34.9640 C   0  0  0  0  0  0  0  0  0  0  0  0
  109.0615   67.9762   34.3501 C   0  0  0  0  0  0  0  0  0  0  0  0
  110.6833   68.7614   35.9596 C   0  0  0  0  0  0  0  0  0  0  0  0
  107.6555   64.1490   42.6882 C   0  0  0  0  0  0  0  0  0  0  0  0
  110.9419   67.4449   36.3412 C   0  0  0  0  0  0  0  0  0  0  0  0
  111.4372   64.5378   40.0051 C   0  0  0  0  0  0  0  0  0  0  0  0
  110.4523   67.0070   39.2240 C   0  0  0  0  0  0  0  0  0  0  0  0
  111.4058   66.5043   38.4320 C   0  0  0  0  0  0  0  0  0  0  0  0
  110.4779   65.1593   40.7072 C   0  0  0  0  0  0  0  0  0  0  0  0
  111.9783   65.1859   38.7889 C   0  0  0  0  0  0  0  0  0  0  0  0
  108.0572   68.2595   33.2847 C   0  0  0  0  0  0  0  0  0  0  0  0
  111.4046   69.8983   36.6053 C   0  0  0  0  0  0  0  0  0  0  0  0
  109.8731   64.5795   41.9449 C   0  0  0  0  0  0  0  0  0  0  0  0
  112.8543   64.6533   38.1178 O   0  0  0  0  0  0  0  0  0  0  0  0
  109.9579   66.3942   40.3500 O   0  0  0  0  0  0  0  0  0  0  0  0
  111.8597   67.1662   37.3170 O   0  0  0  0  0  0  0  0  0  0  0  0
  108.5293   65.0105   42.0733 O   0  0  0  0  0  0  0  0  0  0  0  0
  105.1789   61.7106   44.4350 H   0  0  0  0  0  0  0  0  0  0  0  0
  107.5712   61.0642   44.1467 H   0  0  0  0  0  0  0  0  0  0  0  0
  104.3750   63.9211   43.6029 H   0  0  0  0  0  0  0  0  0  0  0  0
  108.7827   65.8310   34.2477 H   0  0  0  0  0  0  0  0  0  0  0  0
  109.1597   62.6282   43.0263 H   0  0  0  0  0  0  0  0  0  0  0  0
  105.9635   65.4851   42.4828 H   0  0  0  0  0  0  0  0  0  0  0  0
  110.4645   65.3559   36.0280 H   0  0  0  0  0  0  0  0  0  0  0  0
  109.5390   70.0652   34.6631 H   0  0  0  0  0  0  0  0  0  0  0  0
  111.8175   63.5578   40.3293 H   0  0  0  0  0  0  0  0  0  0  0  0
  110.0315   67.9865   38.9530 H   0  0  0  0  0  0  0  0  0  0  0  0
  107.0972   68.5303   33.7484 H   0  0  0  0  0  0  0  0  0  0  0  0
  108.4107   69.0930   32.6599 H   0  0  0  0  0  0  0  0  0  0  0  0
  107.9230   67.3642   32.6599 H   0  0  0  0  0  0  0  0  0  0  0  0
  111.3415   69.7988   37.6990 H   0  0  0  0  0  0  0  0  0  0  0  0
  112.4602   69.8857   36.2963 H   0  0  0  0  0  0  0  0  0  0  0  0
  110.9435   70.8480   36.2963 H   0  0  0  0  0  0  0  0  0  0  0  0
  109.8996   63.4815   41.8838 H   0  0  0  0  0  0  0  0  0  0  0  0
  110.4468   64.9175   42.8205 H   0  0  0  0  0  0  0  0  0  0  0  0
  1  2  2  0
  1  3  1  0
  2  5  1  0
  3  6  2  0
  4  7  2  0
  4  9  1  0
  5 11  2  0
  6 11  1  0
  7 12  1  0
  8  9  2  0
  8 10  1  0
  9 18  1  0
 10 12  2  0
 10 19  1  0
 11 24  1  0
 12 23  1  0
 13 16  2  0
 13 17  1  0
 14 15  2  0
 14 22  1  0
 15 17  1  0
 15 23  1  0
 16 20  1  0
 16 22  1  0
 17 21  2  0
 20 24  1  0
  1 25  1  0
  2 26  1  0
  3 27  1  0
  4 28  1  0
  5 29  1  0
  6 30  1  0
  7 31  1  0
  8 32  1  0
 13 33  1  0
 14 34  1  0
 18 35  1  0
 18 36  1  0
 18 37  1  0
 19 38  1  0
 19 39  1  0
 19 40  1  0
 20 41  1  0
 20 42  1  0
M  END
>  <Name>  (125) 
CHEMBL3623392

>  <Comment>  (125) 
 Schrodinger Suite 2021-4.

>  <s_m_entry_id>  (125) 
1161

>  <class_value>  (125) 
1

>  <s_m_Source_Path>  (125) 
C:\Users\vinicius\Desktop

>  <s_m_Source_File>  (125) 
Ligands_Saureus_o.sdf

>  <i_m_Source_File_Index>  (125) 
69

>  <r_lp_tautomer_probability>  (125) 
1

>  <r_epik_Ionization_Penalty>  (125) 
0

>  <r_epik_State_Penalty>  (125) 
0

>  <i_epik_Tot_Q>  (125) 
0

>  <i_f3d_flags>  (125) 
0

>  <s_m_job_name>  (125) 
Saureus_o

>  <FRED Chemgauss4 score>  (125) 
-12.299535

>  <Set>  (125) 
training

>  <HBA count>  (125) 
4

>  <HBD count>  (125) 
0

>  <ExactMolWt>  (125) 
322.12050905600046

>  <NumRotatableBounds>  (125) 
7

>  <FractionCsp3>  (125) 
0.15

>  <TPSA>  (125) 
48.67

>  <LogP_WildmanCrippen>  (125) 
4.627940000000003

>  <General_Cluster>  (125) 
1

>  <Biological_Cluster>  (125) 
1

>  <Physicochemical_Cluster>  (125) 
1

>  <Structural_Cluster>  (125) 
1

$$$$
CHEMBL3322705
     RDKit          3D

 34 36  0  0  0  0  0  0  0  0999 V2000
  110.0148   66.8694   39.6663 C   0  0  0  0  0  0  0  0  0  0  0  0
  112.2200   66.2002   40.2416 C   0  0  0  0  0  0  0  0  0  0  0  0
  111.2322   66.3220   39.2805 C   0  0  0  0  0  0  0  0  0  0  0  0
  109.8156   67.2566   40.9923 C   0  0  0  0  0  0  0  0  0  0  0  0
  110.8702   67.0880   41.8889 C   0  0  0  0  0  0  0  0  0  0  0  0
  109.4968   67.8910   43.7741 C   0  0  0  0  0  0  0  0  0  0  0  0
  111.4657   65.9051   37.9099 C   0  0  0  0  0  0  0  0  0  0  0  0
  110.7655   66.3170   36.8266 C   0  0  0  0  0  0  0  0  0  0  0  0
  111.0346   65.8568   35.4522 C   0  0  0  0  0  0  0  0  0  0  0  0
  108.5544   67.9379   41.4293 C   0  0  0  0  0  0  0  0  0  0  0  0
  108.2786   67.6708   42.9006 C   0  0  0  0  0  0  0  0  0  0  0  0
  110.6015   68.1571   32.9801 C   0  0  0  0  0  0  0  0  0  0  0  0
  110.8717   66.6498   33.0286 C   0  0  0  0  0  0  0  0  0  0  0  0
  110.1561   68.0841   34.4451 C   0  0  0  0  0  0  0  0  0  0  0  0
  112.0718   66.5761   41.5316 N   0  0  0  0  0  0  0  0  0  0  0  0
  110.7007   67.4942   43.2264 N   0  0  0  0  0  0  0  0  0  0  0  0
  110.7406   66.7574   34.4697 N   0  0  0  0  0  0  0  0  0  0  0  0
  109.3895   68.3076   44.9275 O   0  0  0  0  0  0  0  0  0  0  0  0
  111.4891   64.7318   35.2603 O   0  0  0  0  0  0  0  0  0  0  0  0
  109.2095   66.9974   38.9280 H   0  0  0  0  0  0  0  0  0  0  0  0
  113.1859   65.7708   39.9371 H   0  0  0  0  0  0  0  0  0  0  0  0
  112.2842   65.1911   37.7358 H   0  0  0  0  0  0  0  0  0  0  0  0
  109.9483   67.0369   36.9811 H   0  0  0  0  0  0  0  0  0  0  0  0
  108.6571   69.0218   41.2726 H   0  0  0  0  0  0  0  0  0  0  0  0
  107.7165   67.5430   40.8360 H   0  0  0  0  0  0  0  0  0  0  0  0
  107.9492   66.6273   43.0129 H   0  0  0  0  0  0  0  0  0  0  0  0
  107.5036   68.3799   43.2270 H   0  0  0  0  0  0  0  0  0  0  0  0
  111.4955   68.7741   32.8067 H   0  0  0  0  0  0  0  0  0  0  0  0
  109.9516   68.5949   32.2081 H   0  0  0  0  0  0  0  0  0  0  0  0
  110.1071   66.0276   32.5405 H   0  0  0  0  0  0  0  0  0  0  0  0
  111.7547   66.1978   32.5533 H   0  0  0  0  0  0  0  0  0  0  0  0
  110.6391   68.8139   35.1115 H   0  0  0  0  0  0  0  0  0  0  0  0
  109.1161   68.2713   34.7507 H   0  0  0  0  0  0  0  0  0  0  0  0
  111.5301   67.4954   43.8371 H   0  0  0  0  0  0  0  0  0  0  0  0
  1  3  2  0
  1  4  1  0
  2  3  1  0
  2 15  2  0
  3  7  1  0
  4  5  2  0
  4 10  1  0
  5 15  1  0
  5 16  1  0
  6 11  1  0
  6 16  1  0
  6 18  2  0
  7  8  2  0
  8  9  1  0
  9 17  1  0
  9 19  2  0
 10 11  1  0
 12 13  1  0
 12 14  1  0
 13 17  1  0
 14 17  1  0
  1 20  1  0
  2 21  1  0
  7 22  1  0
  8 23  1  0
 10 24  1  0
 10 25  1  0
 11 26  1  0
 11 27  1  0
 12 28  1  0
 12 29  1  0
 13 30  1  0
 13 31  1  0
 14 32  1  0
 14 33  1  0
 16 34  1  0
M  END
>  <Name>  (126) 
CHEMBL3322705

>  <Comment>  (126) 
 Schrodinger Suite 2021-4.

>  <s_m_entry_id>  (126) 
1265

>  <class_value>  (126) 
0

>  <s_m_Source_Path>  (126) 
C:\Users\vinicius\Desktop

>  <s_m_Source_File>  (126) 
Ligands_Saureus_o.sdf

>  <i_m_Source_File_Index>  (126) 
156

>  <r_lp_tautomer_probability>  (126) 
1

>  <r_epik_Ionization_Penalty>  (126) 
0.0002

>  <r_epik_State_Penalty>  (126) 
0

>  <i_epik_Tot_Q>  (126) 
0

>  <i_f3d_flags>  (126) 
0

>  <s_m_job_name>  (126) 
Saureus_o

>  <FRED Chemgauss4 score>  (126) 
-12.816168

>  <Set>  (126) 
training

>  <HBA count>  (126) 
3

>  <HBD count>  (126) 
1

>  <ExactMolWt>  (126) 
257.11642672000005

>  <NumRotatableBounds>  (126) 
2

>  <FractionCsp3>  (126) 
0.35714285714285715

>  <TPSA>  (126) 
62.300000000000004

>  <LogP_WildmanCrippen>  (126) 
1.2117999999999998

>  <General_Cluster>  (126) 
2

>  <Biological_Cluster>  (126) 
2

>  <Physicochemical_Cluster>  (126) 
2

>  <Structural_Cluster>  (126) 
3

$$$$
CHEMBL322294
     RDKit          3D

 61 64  0  0  1  0  0  0  0  0999 V2000
  109.4069   67.9789   31.2968 C   0  0  0  0  0  0  0  0  0  0  0  0
  109.6808   69.3381   31.1572 C   0  0  0  0  0  0  0  0  0  0  0  0
  109.6273   67.3252   32.5145 C   0  0  0  0  0  0  0  0  0  0  0  0
  110.1502   64.8457   38.8550 C   0  0  0  0  0  0  0  0  0  0  0  0
  110.1822   70.0858   32.2264 C   0  0  0  0  0  0  0  0  0  0  0  0
  109.4801   64.0510   39.7857 C   0  0  0  0  0  0  0  0  0  0  0  0
  110.4676   67.7313   34.9504 C   0  0  0  0  0  0  0  0  0  0  0  0
  110.3559   66.5756   40.5098 C   0  0  0  0  0  0  0  0  0  0  0  0
  110.1324   68.0584   33.6066 C   0  0  0  0  0  0  0  0  0  0  0  0
  110.5915   66.1094   39.2191 C   0  0  0  0  0  0  0  0  0  0  0  0
  109.6722   65.7870   41.4560 C   0  0  0  0  0  0  0  0  0  0  0  0
  110.3977   69.4190   33.4377 C   0  0  0  0  0  0  0  0  0  0  0  0
  109.2330   64.4931   41.1017 C   0  0  0  0  0  0  0  0  0  0  0  0
  110.9216   68.8782   35.5598 C   0  0  0  0  0  0  0  0  0  0  0  0
  107.4602   65.0508   43.5830 C   0  0  0  0  0  0  0  0  0  0  0  0
  111.2942   66.9429   38.2570 C   0  0  0  0  0  0  0  0  0  0  0  0
  107.8791   62.4972   45.4575 C   0  0  0  0  0  0  0  0  0  0  0  0
  109.4566   66.3696   42.8320 C   0  0  0  0  0  0  0  0  0  0  0  0
  108.3521   63.8285   43.3791 C   0  0  1  0  0  0  0  0  0  0  0  0
  111.2714   71.2612   34.8930 C   0  0  0  0  0  0  0  0  0  0  0  0
  107.3029   67.5114   43.3415 C   0  0  0  0  0  0  0  0  0  0  0  0
  109.4941   68.6733   38.4745 C   0  0  0  0  0  0  0  0  0  0  0  0
  109.3540   61.6615   47.1082 C   0  0  0  0  0  0  0  0  0  0  0  0
  111.4032   69.0934   36.9654 C   0  0  0  0  0  0  0  0  0  0  0  0
  107.7010   62.5732   43.9636 C   0  0  0  0  0  0  0  0  0  0  0  0
  110.8755   69.8908   34.6395 N   0  0  0  0  0  0  0  0  0  0  0  0
  108.5646   63.6252   41.9550 N   0  0  0  0  0  0  0  0  0  0  0  0
  108.0630   66.2712   43.2668 N   0  0  0  0  0  0  0  0  0  0  0  0
  110.7483   68.1930   37.9118 N   0  0  0  0  0  0  0  0  0  0  0  0
  106.3001   64.9408   43.9832 O   0  0  0  0  0  0  0  0  0  0  0  0
  112.3568   66.5004   37.8004 O   0  0  0  0  0  0  0  0  0  0  0  0
  107.1146   62.9641   46.2906 O   0  0  0  0  0  0  0  0  0  0  0  0
  109.0364   61.8210   45.7217 O   0  0  0  0  0  0  0  0  0  0  0  0
  109.0128   67.4131   30.4398 H   0  0  0  0  0  0  0  0  0  0  0  0
  109.4996   69.8303   30.1903 H   0  0  0  0  0  0  0  0  0  0  0  0
  109.4089   66.2521   32.6178 H   0  0  0  0  0  0  0  0  0  0  0  0
  110.3279   64.4714   37.8360 H   0  0  0  0  0  0  0  0  0  0  0  0
  110.3994   71.1588   32.1196 H   0  0  0  0  0  0  0  0  0  0  0  0
  109.1347   63.0511   39.4842 H   0  0  0  0  0  0  0  0  0  0  0  0
  110.3795   66.7395   35.4180 H   0  0  0  0  0  0  0  0  0  0  0  0
  110.7098   67.5771   40.7956 H   0  0  0  0  0  0  0  0  0  0  0  0
  110.0896   65.8262   43.5489 H   0  0  0  0  0  0  0  0  0  0  0  0
  109.7204   67.4367   42.7897 H   0  0  0  0  0  0  0  0  0  0  0  0
  109.3086   64.0053   43.8928 H   0  0  0  0  0  0  0  0  0  0  0  0
  111.3212   71.4337   35.9782 H   0  0  0  0  0  0  0  0  0  0  0  0
  112.2596   71.4459   34.4466 H   0  0  0  0  0  0  0  0  0  0  0  0
  110.5339   71.9445   34.4466 H   0  0  0  0  0  0  0  0  0  0  0  0
  107.1393   67.7783   44.3960 H   0  0  0  0  0  0  0  0  0  0  0  0
  107.8634   68.3156   42.8424 H   0  0  0  0  0  0  0  0  0  0  0  0
  106.3319   67.3770   42.8424 H   0  0  0  0  0  0  0  0  0  0  0  0
  109.5525   68.6509   39.5727 H   0  0  0  0  0  0  0  0  0  0  0  0
  109.3124   69.7047   38.1379 H   0  0  0  0  0  0  0  0  0  0  0  0
  108.6699   68.0272   38.1379 H   0  0  0  0  0  0  0  0  0  0  0  0
  108.5376   62.0715   47.7209 H   0  0  0  0  0  0  0  0  0  0  0  0
  109.4812   60.5926   47.3346 H   0  0  0  0  0  0  0  0  0  0  0  0
  110.2873   62.1978   47.3346 H   0  0  0  0  0  0  0  0  0  0  0  0
  112.4884   68.9170   37.0000 H   0  0  0  0  0  0  0  0  0  0  0  0
  111.1589   70.1263   37.2541 H   0  0  0  0  0  0  0  0  0  0  0  0
  108.1612   61.6860   43.5041 H   0  0  0  0  0  0  0  0  0  0  0  0
  106.6230   62.6142   43.7485 H   0  0  0  0  0  0  0  0  0  0  0  0
  108.1857   62.7607   41.5427 H   0  0  0  0  0  0  0  0  0  0  0  0
  1  2  2  0
  1  3  1  0
  2  5  1  0
  3  9  2  0
  4  6  2  0
  4 10  1  0
  5 12  2  0
  6 13  1  0
  7  9  1  0
  7 14  2  0
  8 10  2  0
  8 11  1  0
  9 12  1  0
 10 16  1  0
 11 13  2  0
 11 18  1  0
 12 26  1  0
 13 27  1  0
 14 24  1  0
 14 26  1  0
 15 19  1  0
 15 28  1  0
 15 30  2  0
 16 29  1  0
 16 31  2  0
 17 25  1  0
 17 32  2  0
 17 33  1  0
 18 28  1  0
 19 25  1  0
 19 27  1  0
 20 26  1  0
 21 28  1  0
 22 29  1  0
 23 33  1  0
 24 29  1  0
  1 34  1  0
  2 35  1  0
  3 36  1  0
  4 37  1  0
  5 38  1  0
  6 39  1  0
  7 40  1  0
  8 41  1  0
 18 42  1  0
 18 43  1  0
 19 44  1  1
 20 45  1  0
 20 46  1  0
 20 47  1  0
 21 48  1  0
 21 49  1  0
 21 50  1  0
 22 51  1  0
 22 52  1  0
 22 53  1  0
 23 54  1  0
 23 55  1  0
 23 56  1  0
 24 57  1  0
 24 58  1  0
 25 59  1  0
 25 60  1  0
 27 61  1  0
M  END
>  <Name>  (127) 
CHEMBL322294

>  <Comment>  (127) 
 Schrodinger Suite 2021-4.

>  <s_m_entry_id>  (127) 
1264

>  <class_value>  (127) 
0

>  <s_m_Source_Path>  (127) 
C:\Users\vinicius\Desktop

>  <s_m_Source_File>  (127) 
Ligands_Saureus_o.sdf

>  <i_m_Source_File_Index>  (127) 
155

>  <r_lp_tautomer_probability>  (127) 
1

>  <r_epik_Ionization_Penalty>  (127) 
0

>  <r_epik_State_Penalty>  (127) 
0

>  <i_epik_Tot_Q>  (127) 
0

>  <i_f3d_flags>  (127) 
0

>  <s_m_job_name>  (127) 
Saureus_o

>  <FRED Chemgauss4 score>  (127) 
-12.464593

>  <Set>  (127) 
training

>  <HBA count>  (127) 
6

>  <HBD count>  (127) 
1

>  <ExactMolWt>  (127) 
448.2110553760008

>  <NumRotatableBounds>  (127) 
9

>  <FractionCsp3>  (127) 
0.32

>  <TPSA>  (127) 
83.88000000000001

>  <LogP_WildmanCrippen>  (127) 
2.7661000000000007

>  <General_Cluster>  (127) 
5

>  <Biological_Cluster>  (127) 
2

>  <Physicochemical_Cluster>  (127) 
4

>  <Structural_Cluster>  (127) 
4

$$$$
CHEMBL3676407
     RDKit          3D

 51 54  0  0  0  0  0  0  0  0999 V2000
  112.3720   71.4264   34.6068 C   0  0  0  0  0  0  0  0  0  0  0  0
  112.7523   70.0876   34.6985 C   0  0  0  0  0  0  0  0  0  0  0  0
  111.2999   71.7928   33.7930 C   0  0  0  0  0  0  0  0  0  0  0  0
  112.0606   69.1151   33.9764 C   0  0  0  0  0  0  0  0  0  0  0  0
  110.6083   70.8203   33.0709 C   0  0  0  0  0  0  0  0  0  0  0  0
  110.3204   67.2759   39.3639 C   0  0  0  0  0  0  0  0  0  0  0  0
  112.3133   66.2231   40.1134 C   0  0  0  0  0  0  0  0  0  0  0  0
  111.4759   66.5643   39.0660 C   0  0  0  0  0  0  0  0  0  0  0  0
  110.9886   69.4814   33.1626 C   0  0  0  0  0  0  0  0  0  0  0  0
  110.0285   67.6049   40.6884 C   0  0  0  0  0  0  0  0  0  0  0  0
  110.9316   67.2109   41.6750 C   0  0  0  0  0  0  0  0  0  0  0  0
  109.4858   68.1039   43.4632 C   0  0  0  0  0  0  0  0  0  0  0  0
  111.8071   66.1978   37.6780 C   0  0  0  0  0  0  0  0  0  0  0  0
  110.9296   66.1462   36.6648 C   0  0  0  0  0  0  0  0  0  0  0  0
  111.3085   65.7629   35.2886 C   0  0  0  0  0  0  0  0  0  0  0  0
  108.8444   68.4522   41.0433 C   0  0  0  0  0  0  0  0  0  0  0  0
  108.3596   68.1401   42.4503 C   0  0  0  0  0  0  0  0  0  0  0  0
  111.0510   67.1766   31.9330 C   0  0  0  0  0  0  0  0  0  0  0  0
  108.9936   67.9345   33.1585 C   0  0  0  0  0  0  0  0  0  0  0  0
  110.9130   65.9678   32.8666 C   0  0  0  0  0  0  0  0  0  0  0  0
  109.3883   67.1724   34.4241 C   0  0  0  0  0  0  0  0  0  0  0  0
  110.2290   68.4143   32.3693 C   0  0  0  0  0  0  0  0  0  0  0  0
  112.0739   66.5350   41.4067 N   0  0  0  0  0  0  0  0  0  0  0  0
  110.6704   67.5531   43.0156 N   0  0  0  0  0  0  0  0  0  0  0  0
  110.5736   66.3226   34.2430 N   0  0  0  0  0  0  0  0  0  0  0  0
  109.3089   68.4581   44.6287 O   0  0  0  0  0  0  0  0  0  0  0  0
  112.2440   64.9741   35.1487 O   0  0  0  0  0  0  0  0  0  0  0  0
  109.7793   69.0500   31.1619 O   0  0  0  0  0  0  0  0  0  0  0  0
  112.9175   72.1933   35.1762 H   0  0  0  0  0  0  0  0  0  0  0  0
  113.5977   69.7987   35.3403 H   0  0  0  0  0  0  0  0  0  0  0  0
  110.9999   72.8486   33.7208 H   0  0  0  0  0  0  0  0  0  0  0  0
  112.3605   68.0593   34.0487 H   0  0  0  0  0  0  0  0  0  0  0  0
  109.7630   71.1092   32.4291 H   0  0  0  0  0  0  0  0  0  0  0  0
  109.6369   67.5794   38.5573 H   0  0  0  0  0  0  0  0  0  0  0  0
  113.2307   65.6633   39.8791 H   0  0  0  0  0  0  0  0  0  0  0  0
  112.8548   65.9471   37.4554 H   0  0  0  0  0  0  0  0  0  0  0  0
  109.8789   66.4011   36.8676 H   0  0  0  0  0  0  0  0  0  0  0  0
  109.1302   69.5130   40.9873 H   0  0  0  0  0  0  0  0  0  0  0  0
  108.0314   68.2368   40.3343 H   0  0  0  0  0  0  0  0  0  0  0  0
  107.8627   67.1588   42.4415 H   0  0  0  0  0  0  0  0  0  0  0  0
  107.6699   68.9431   42.7494 H   0  0  0  0  0  0  0  0  0  0  0  0
  112.1123   67.4635   31.8951 H   0  0  0  0  0  0  0  0  0  0  0  0
  110.6576   66.8657   30.9539 H   0  0  0  0  0  0  0  0  0  0  0  0
  108.3960   67.2715   32.5156 H   0  0  0  0  0  0  0  0  0  0  0  0
  108.4153   68.8204   33.4595 H   0  0  0  0  0  0  0  0  0  0  0  0
  110.1221   65.3130   32.4719 H   0  0  0  0  0  0  0  0  0  0  0  0
  111.8942   65.4714   32.8959 H   0  0  0  0  0  0  0  0  0  0  0  0
  109.5996   67.9020   35.2198 H   0  0  0  0  0  0  0  0  0  0  0  0
  108.5484   66.5107   34.6822 H   0  0  0  0  0  0  0  0  0  0  0  0
  111.4125   67.3811   43.7088 H   0  0  0  0  0  0  0  0  0  0  0  0
  109.2230   69.8364   31.3905 H   0  0  0  0  0  0  0  0  0  0  0  0
  1  2  2  0
  1  3  1  0
  2  4  1  0
  3  5  2  0
  4  9  2  0
  5  9  1  0
  6  8  2  0
  6 10  1  0
  7  8  1  0
  7 23  2  0
  8 13  1  0
  9 22  1  0
 10 11  2  0
 10 16  1  0
 11 23  1  0
 11 24  1  0
 12 17  1  0
 12 24  1  0
 12 26  2  0
 13 14  2  0
 14 15  1  0
 15 25  1  0
 15 27  2  0
 16 17  1  0
 18 20  1  0
 18 22  1  0
 19 21  1  0
 19 22  1  0
 20 25  1  0
 21 25  1  0
 22 28  1  0
  1 29  1  0
  2 30  1  0
  3 31  1  0
  4 32  1  0
  5 33  1  0
  6 34  1  0
  7 35  1  0
 13 36  1  0
 14 37  1  0
 16 38  1  0
 16 39  1  0
 17 40  1  0
 17 41  1  0
 18 42  1  0
 18 43  1  0
 19 44  1  0
 19 45  1  0
 20 46  1  0
 20 47  1  0
 21 48  1  0
 21 49  1  0
 24 50  1  0
 28 51  1  0
M  END
>  <Name>  (128) 
CHEMBL3676407

>  <Comment>  (128) 
 Schrodinger Suite 2021-4.

>  <s_m_entry_id>  (128) 
1167

>  <class_value>  (128) 
1

>  <s_m_Source_Path>  (128) 
C:\Users\vinicius\Desktop

>  <s_m_Source_File>  (128) 
Ligands_Saureus_o.sdf

>  <i_m_Source_File_Index>  (128) 
73

>  <r_lp_tautomer_probability>  (128) 
1

>  <r_epik_Ionization_Penalty>  (128) 
0.0002

>  <r_epik_State_Penalty>  (128) 
0

>  <i_epik_Tot_Q>  (128) 
0

>  <i_f3d_flags>  (128) 
0

>  <s_m_job_name>  (128) 
Saureus_o

>  <FRED Chemgauss4 score>  (128) 
-15.217193

>  <Set>  (128) 
training

>  <HBA count>  (128) 
4

>  <HBD count>  (128) 
2

>  <ExactMolWt>  (128) 
377.17394159600065

>  <NumRotatableBounds>  (128) 
4

>  <FractionCsp3>  (128) 
0.3181818181818182

>  <TPSA>  (128) 
82.53

>  <LogP_WildmanCrippen>  (128) 
2.4897000000000005

>  <General_Cluster>  (128) 
1

>  <Biological_Cluster>  (128) 
1

>  <Physicochemical_Cluster>  (128) 
4

>  <Structural_Cluster>  (128) 
2

$$$$
CHEMBL3322718
     RDKit          3D

 50 54  0  0  0  0  0  0  0  0999 V2000
  109.8723   69.5034   31.4973 C   0  0  0  0  0  0  0  0  0  0  0  0
  109.7305   68.1230   31.3343 C   0  0  0  0  0  0  0  0  0  0  0  0
  110.2387   70.0516   32.7341 C   0  0  0  0  0  0  0  0  0  0  0  0
  109.9489   67.2411   32.3970 C   0  0  0  0  0  0  0  0  0  0  0  0
  108.5895   64.2020   42.4867 C   0  0  0  0  0  0  0  0  0  0  0  0
  108.7010   66.4419   43.2692 C   0  0  0  0  0  0  0  0  0  0  0  0
  110.4635   69.1832   33.8166 C   0  0  0  0  0  0  0  0  0  0  0  0
  109.1964   65.4510   42.4402 C   0  0  0  0  0  0  0  0  0  0  0  0
  107.5291   63.9766   43.3656 C   0  0  0  0  0  0  0  0  0  0  0  0
  110.8349   69.3325   35.1789 C   0  0  0  0  0  0  0  0  0  0  0  0
  110.3121   67.8153   33.6138 C   0  0  0  0  0  0  0  0  0  0  0  0
  110.8849   68.0639   35.7085 C   0  0  0  0  0  0  0  0  0  0  0  0
  107.1054   65.0370   44.1658 C   0  0  0  0  0  0  0  0  0  0  0  0
  105.4456   63.6131   45.3073 C   0  0  0  0  0  0  0  0  0  0  0  0
  110.3048   65.7126   41.5403 C   0  0  0  0  0  0  0  0  0  0  0  0
  110.6165   64.9918   40.4373 C   0  0  0  0  0  0  0  0  0  0  0  0
  111.7607   65.2915   39.5576 C   0  0  0  0  0  0  0  0  0  0  0  0
  106.7853   62.6757   43.3798 C   0  0  0  0  0  0  0  0  0  0  0  0
  106.1842   62.4125   44.7515 C   0  0  0  0  0  0  0  0  0  0  0  0
  112.3583   66.6545   37.4802 C   0  0  0  0  0  0  0  0  0  0  0  0
  110.3030   66.7994   38.0240 C   0  0  0  0  0  0  0  0  0  0  0  0
  111.2568   67.7080   37.2085 C   0  0  0  0  0  0  0  0  0  0  0  0
  111.1111   70.5996   35.8835 C   0  0  0  0  0  0  0  0  0  0  0  0
  107.6677   66.2681   44.1232 N   0  0  0  0  0  0  0  0  0  0  0  0
  106.0213   64.8400   45.0425 N   0  0  0  0  0  0  0  0  0  0  0  0
  111.4940   66.1451   38.5272 N   0  0  0  0  0  0  0  0  0  0  0  0
  104.4543   63.4781   46.0244 O   0  0  0  0  0  0  0  0  0  0  0  0
  112.8552   64.7802   39.7803 O   0  0  0  0  0  0  0  0  0  0  0  0
  110.5692   67.1364   34.7673 O   0  0  0  0  0  0  0  0  0  0  0  0
  109.6935   70.1706   30.6412 H   0  0  0  0  0  0  0  0  0  0  0  0
  109.4416   67.7225   30.3514 H   0  0  0  0  0  0  0  0  0  0  0  0
  110.3482   71.1394   32.8553 H   0  0  0  0  0  0  0  0  0  0  0  0
  109.8399   66.1529   32.2790 H   0  0  0  0  0  0  0  0  0  0  0  0
  108.9442   63.3923   41.8320 H   0  0  0  0  0  0  0  0  0  0  0  0
  109.1776   67.4326   43.2309 H   0  0  0  0  0  0  0  0  0  0  0  0
  110.9488   66.5729   41.7753 H   0  0  0  0  0  0  0  0  0  0  0  0
  109.9787   64.1325   40.1828 H   0  0  0  0  0  0  0  0  0  0  0  0
  105.9781   62.7136   42.6335 H   0  0  0  0  0  0  0  0  0  0  0  0
  107.4890   61.8645   43.1416 H   0  0  0  0  0  0  0  0  0  0  0  0
  106.9949   62.1460   45.4456 H   0  0  0  0  0  0  0  0  0  0  0  0
  105.4557   61.5955   44.6434 H   0  0  0  0  0  0  0  0  0  0  0  0
  112.5425   65.9545   36.6519 H   0  0  0  0  0  0  0  0  0  0  0  0
  113.4045   66.9364   37.6697 H   0  0  0  0  0  0  0  0  0  0  0  0
  109.7061   67.3221   38.7859 H   0  0  0  0  0  0  0  0  0  0  0  0
  109.4818   66.2395   37.5527 H   0  0  0  0  0  0  0  0  0  0  0  0
  111.3981   68.7702   37.4571 H   0  0  0  0  0  0  0  0  0  0  0  0
  111.0743   70.4306   36.9698 H   0  0  0  0  0  0  0  0  0  0  0  0
  112.1100   70.9650   35.6029 H   0  0  0  0  0  0  0  0  0  0  0  0
  110.3549   71.3476   35.6029 H   0  0  0  0  0  0  0  0  0  0  0  0
  105.6316   65.6663   45.5181 H   0  0  0  0  0  0  0  0  0  0  0  0
  1  2  2  0
  1  3  1  0
  2  4  1  0
  3  7  2  0
  4 11  2  0
  5  8  2  0
  5  9  1  0
  6  8  1  0
  6 24  2  0
  7 10  1  0
  7 11  1  0
  8 15  1  0
  9 13  2  0
  9 18  1  0
 10 12  2  0
 10 23  1  0
 11 29  1  0
 12 22  1  0
 12 29  1  0
 13 24  1  0
 13 25  1  0
 14 19  1  0
 14 25  1  0
 14 27  2  0
 15 16  2  0
 16 17  1  0
 17 26  1  0
 17 28  2  0
 18 19  1  0
 20 22  1  0
 20 26  1  0
 21 22  1  0
 21 26  1  0
  1 30  1  0
  2 31  1  0
  3 32  1  0
  4 33  1  0
  5 34  1  0
  6 35  1  0
 15 36  1  0
 16 37  1  0
 18 38  1  0
 18 39  1  0
 19 40  1  0
 19 41  1  0
 20 42  1  0
 20 43  1  0
 21 44  1  0
 21 45  1  0
 22 46  1  0
 23 47  1  0
 23 48  1  0
 23 49  1  0
 25 50  1  0
M  END
>  <Name>  (129) 
CHEMBL3322718

>  <Comment>  (129) 
 Schrodinger Suite 2021-4.

>  <s_m_entry_id>  (129) 
1124

>  <class_value>  (129) 
1

>  <s_m_Source_Path>  (129) 
C:\Users\vinicius\Desktop

>  <s_m_Source_File>  (129) 
Ligands_Saureus_o.sdf

>  <i_m_Source_File_Index>  (129) 
41

>  <r_lp_tautomer_probability>  (129) 
1

>  <r_epik_Ionization_Penalty>  (129) 
0.0002

>  <r_epik_State_Penalty>  (129) 
0

>  <i_epik_Tot_Q>  (129) 
0

>  <i_f3d_flags>  (129) 
0

>  <s_m_job_name>  (129) 
Saureus_o

>  <FRED Chemgauss4 score>  (129) 
-13.557743

>  <Set>  (129) 
training

>  <HBA count>  (129) 
4

>  <HBD count>  (129) 
1

>  <ExactMolWt>  (129) 
387.1582915320006

>  <NumRotatableBounds>  (129) 
4

>  <FractionCsp3>  (129) 
0.2608695652173913

>  <TPSA>  (129) 
75.44

>  <LogP_WildmanCrippen>  (129) 
3.6601200000000027

>  <General_Cluster>  (129) 
1

>  <Biological_Cluster>  (129) 
1

>  <Physicochemical_Cluster>  (129) 
1

>  <Structural_Cluster>  (129) 
2

$$$$
CHEMBL4214096
     RDKit          3D

 50 52  0  0  1  0  0  0  0  0999 V2000
  111.5341   71.5950   31.8056 C   0  0  0  0  0  0  0  0  0  0  0  0
  111.7322   72.4440   32.8944 C   0  0  0  0  0  0  0  0  0  0  0  0
  111.7712   66.1470   39.8515 C   0  0  0  0  0  0  0  0  0  0  0  0
  111.1470   70.2713   32.0146 C   0  0  0  0  0  0  0  0  0  0  0  0
  111.5435   71.9692   34.1924 C   0  0  0  0  0  0  0  0  0  0  0  0
  111.8800   66.5520   41.1772 C   0  0  0  0  0  0  0  0  0  0  0  0
  109.4871   66.8085   39.8911 C   0  0  0  0  0  0  0  0  0  0  0  0
  110.5554   66.2743   39.1889 C   0  0  0  0  0  0  0  0  0  0  0  0
  110.9583   69.7965   33.3126 C   0  0  0  0  0  0  0  0  0  0  0  0
  111.1565   70.6455   34.4015 C   0  0  0  0  0  0  0  0  0  0  0  0
  110.7523   67.0739   41.7903 C   0  0  0  0  0  0  0  0  0  0  0  0
  110.4078   65.8544   37.7845 C   0  0  0  0  0  0  0  0  0  0  0  0
  111.4195   65.6919   36.9189 C   0  0  0  0  0  0  0  0  0  0  0  0
  111.2205   65.2780   35.5158 C   0  0  0  0  0  0  0  0  0  0  0  0
  109.8856   68.0301   43.9487 C   0  0  0  0  0  0  0  0  0  0  0  0
  111.0375   67.3366   32.4838 C   0  0  0  0  0  0  0  0  0  0  0  0
  110.8398   66.0007   33.1814 C   0  0  0  0  0  0  0  0  0  0  0  0
  111.0270   67.7296   34.8361 C   0  0  0  0  0  0  0  0  0  0  0  0
  110.5388   68.3576   33.5202 C   0  0  1  0  0  0  0  0  0  0  0  0
  110.4169   68.3283   45.3283 C   0  0  0  0  0  0  0  0  0  0  0  0
  111.2014   71.1325   36.7288 C   0  0  0  0  0  0  0  0  0  0  0  0
  109.5544   67.2130   41.1793 N   0  0  0  0  0  0  0  0  0  0  0  0
  111.0399   66.2889   34.5916 N   0  0  0  0  0  0  0  0  0  0  0  0
  110.8721   67.4791   43.1251 N   0  0  0  0  0  0  0  0  0  0  0  0
  111.2293   64.0775   35.2454 O   0  0  0  0  0  0  0  0  0  0  0  0
  108.7169   68.2673   43.6608 O   0  0  0  0  0  0  0  0  0  0  0  0
  110.9772   70.1974   35.6756 O   0  0  0  0  0  0  0  0  0  0  0  0
  111.6831   71.9693   30.7821 H   0  0  0  0  0  0  0  0  0  0  0  0
  112.0372   73.4879   32.7295 H   0  0  0  0  0  0  0  0  0  0  0  0
  112.6435   65.7275   39.3289 H   0  0  0  0  0  0  0  0  0  0  0  0
  110.9905   69.6019   31.1559 H   0  0  0  0  0  0  0  0  0  0  0  0
  111.6999   72.6387   35.0511 H   0  0  0  0  0  0  0  0  0  0  0  0
  112.8312   66.4610   41.7220 H   0  0  0  0  0  0  0  0  0  0  0  0
  108.5247   66.9097   39.3681 H   0  0  0  0  0  0  0  0  0  0  0  0
  109.3894   65.6591   37.4175 H   0  0  0  0  0  0  0  0  0  0  0  0
  112.4453   65.8756   37.2709 H   0  0  0  0  0  0  0  0  0  0  0  0
  112.0985   67.5033   32.2462 H   0  0  0  0  0  0  0  0  0  0  0  0
  110.5036   67.4031   31.5244 H   0  0  0  0  0  0  0  0  0  0  0  0
  109.8243   65.6168   33.0040 H   0  0  0  0  0  0  0  0  0  0  0  0
  111.5327   65.2308   32.8111 H   0  0  0  0  0  0  0  0  0  0  0  0
  112.0372   68.0880   35.0830 H   0  0  0  0  0  0  0  0  0  0  0  0
  110.3795   67.9968   35.6842 H   0  0  0  0  0  0  0  0  0  0  0  0
  109.4495   68.5014   33.4672 H   0  0  0  0  0  0  0  0  0  0  0  0
  109.7188   67.9365   46.0827 H   0  0  0  0  0  0  0  0  0  0  0  0
  111.3993   67.8498   45.4542 H   0  0  0  0  0  0  0  0  0  0  0  0
  110.5201   69.4162   45.4542 H   0  0  0  0  0  0  0  0  0  0  0  0
  111.0805   70.6281   37.6988 H   0  0  0  0  0  0  0  0  0  0  0  0
  112.2217   71.5359   36.6499 H   0  0  0  0  0  0  0  0  0  0  0  0
  110.4749   71.9547   36.6499 H   0  0  0  0  0  0  0  0  0  0  0  0
  111.8010   67.3562   43.5529 H   0  0  0  0  0  0  0  0  0  0  0  0
  1  2  2  0
  1  4  1  0
  2  5  1  0
  3  6  2  0
  3  8  1  0
  4  9  2  0
  5 10  2  0
  6 11  1  0
  7  8  2  0
  7 22  1  0
  8 12  1  0
  9 10  1  0
  9 19  1  0
 10 27  1  0
 11 22  2  0
 11 24  1  0
 12 13  2  0
 13 14  1  0
 14 23  1  0
 14 25  2  0
 15 20  1  0
 15 24  1  0
 15 26  2  0
 16 17  1  0
 16 19  1  0
 17 23  1  0
 18 19  1  0
 18 23  1  0
 21 27  1  0
  1 28  1  0
  2 29  1  0
  3 30  1  0
  4 31  1  0
  5 32  1  0
  6 33  1  0
  7 34  1  0
 12 35  1  0
 13 36  1  0
 16 37  1  0
 16 38  1  0
 17 39  1  0
 17 40  1  0
 18 41  1  0
 18 42  1  0
 19 43  1  1
 20 44  1  0
 20 45  1  0
 20 46  1  0
 21 47  1  0
 21 48  1  0
 21 49  1  0
 24 50  1  0
M  END
>  <Name>  (130) 
CHEMBL4214096

>  <Comment>  (130) 
 Schrodinger Suite 2021-4.

>  <s_m_entry_id>  (130) 
1457

>  <s_m_Source_Path>  (130) 
C:\Users\vinicius\Desktop

>  <s_m_Source_File>  (130) 
Ligands_Saureus_failomega.smi

>  <i_m_Source_File_Index>  (130) 
17

>  <r_lp_tautomer_probability>  (130) 
1

>  <r_epik_Ionization_Penalty>  (130) 
0.0001

>  <r_epik_State_Penalty>  (130) 
0

>  <i_epik_Tot_Q>  (130) 
0

>  <i_f3d_flags>  (130) 
0

>  <s_m_job_name>  (130) 
Saureus_fail

>  <class_value>  (130) 
0

>  <FRED Chemgauss4 score>  (130) 
-12.584918

>  <Set>  (130) 
training

>  <HBA count>  (130) 
4

>  <HBD count>  (130) 
1

>  <ExactMolWt>  (130) 
365.17394159600065

>  <NumRotatableBounds>  (130) 
7

>  <FractionCsp3>  (130) 
0.2857142857142857

>  <TPSA>  (130) 
71.53

>  <LogP_WildmanCrippen>  (130) 
3.0779000000000014

>  <General_Cluster>  (130) 
1

>  <Biological_Cluster>  (130) 
2

>  <Physicochemical_Cluster>  (130) 
1

>  <Structural_Cluster>  (130) 
2

$$$$
CHEMBL72900
     RDKit          3D

 55 59  0  0  0  0  0  0  0  0999 V2000
  108.1049   62.7397   43.5877 C   0  0  0  0  0  0  0  0  0  0  0  0
  107.2037   63.7694   43.8493 C   0  0  0  0  0  0  0  0  0  0  0  0
  109.1274   62.9045   42.6466 C   0  0  0  0  0  0  0  0  0  0  0  0
  112.2220   68.7512   37.6119 C   0  0  0  0  0  0  0  0  0  0  0  0
  112.0595   70.0477   37.1238 C   0  0  0  0  0  0  0  0  0  0  0  0
  107.3079   68.7434   43.5186 C   0  0  0  0  0  0  0  0  0  0  0  0
  109.6213   68.7197   42.8225 C   0  0  0  0  0  0  0  0  0  0  0  0
  107.2944   64.9935   43.1809 C   0  0  0  0  0  0  0  0  0  0  0  0
  107.6469   69.5315   44.6184 C   0  0  0  0  0  0  0  0  0  0  0  0
  109.9603   69.5078   43.9223 C   0  0  0  0  0  0  0  0  0  0  0  0
  110.4493   69.2397   35.5140 C   0  0  0  0  0  0  0  0  0  0  0  0
  109.2407   64.1299   41.9597 C   0  0  0  0  0  0  0  0  0  0  0  0
  111.4983   67.6989   37.0510 C   0  0  0  0  0  0  0  0  0  0  0  0
  110.1246   64.6383   40.9695 C   0  0  0  0  0  0  0  0  0  0  0  0
  108.2951   68.3374   42.6206 C   0  0  0  0  0  0  0  0  0  0  0  0
  111.1731   70.2920   36.0749 C   0  0  0  0  0  0  0  0  0  0  0  0
  108.3209   65.1462   42.2420 C   0  0  0  0  0  0  0  0  0  0  0  0
  108.9731   69.9137   44.8202 C   0  0  0  0  0  0  0  0  0  0  0  0
  110.6119   67.9432   36.0021 C   0  0  0  0  0  0  0  0  0  0  0  0
  109.7259   65.9250   40.6748 C   0  0  0  0  0  0  0  0  0  0  0  0
  111.6852   66.3394   37.5805 C   0  0  0  0  0  0  0  0  0  0  0  0
  111.2863   64.0125   40.2816 C   0  0  0  0  0  0  0  0  0  0  0  0
  110.3604   66.8501   39.7000 C   0  0  0  0  0  0  0  0  0  0  0  0
  112.1828   65.1047   39.6733 C   0  0  0  0  0  0  0  0  0  0  0  0
  110.9992   71.6783   35.5534 C   0  0  0  0  0  0  0  0  0  0  0  0
  107.9295   67.4877   41.4337 C   0  0  0  0  0  0  0  0  0  0  0  0
  108.6412   66.2269   41.4471 N   0  0  0  0  0  0  0  0  0  0  0  0
  111.3925   66.1097   38.9300 N   0  0  0  0  0  0  0  0  0  0  0  0
  112.0976   65.4961   36.7854 O   0  0  0  0  0  0  0  0  0  0  0  0
  109.3034   70.6838   45.8927 O   0  0  0  0  0  0  0  0  0  0  0  0
  109.8955   66.9286   35.4409 O   0  0  0  0  0  0  0  0  0  0  0  0
  108.0116   61.7857   44.1274 H   0  0  0  0  0  0  0  0  0  0  0  0
  106.4083   63.6166   44.5936 H   0  0  0  0  0  0  0  0  0  0  0  0
  109.8349   62.0866   42.4452 H   0  0  0  0  0  0  0  0  0  0  0  0
  112.9209   68.5586   38.4392 H   0  0  0  0  0  0  0  0  0  0  0  0
  112.6304   70.8775   37.5660 H   0  0  0  0  0  0  0  0  0  0  0  0
  106.2620   68.4420   43.3594 H   0  0  0  0  0  0  0  0  0  0  0  0
  110.3998   68.3997   42.1144 H   0  0  0  0  0  0  0  0  0  0  0  0
  106.5841   65.8081   43.3856 H   0  0  0  0  0  0  0  0  0  0  0  0
  106.8684   69.8516   45.3266 H   0  0  0  0  0  0  0  0  0  0  0  0
  111.0062   69.8092   44.0815 H   0  0  0  0  0  0  0  0  0  0  0  0
  109.7503   69.4323   34.6868 H   0  0  0  0  0  0  0  0  0  0  0  0
  111.8677   63.4255   41.0078 H   0  0  0  0  0  0  0  0  0  0  0  0
  110.9215   63.3540   39.4795 H   0  0  0  0  0  0  0  0  0  0  0  0
  109.5965   67.2407   39.0116 H   0  0  0  0  0  0  0  0  0  0  0  0
  110.8280   67.6897   40.2353 H   0  0  0  0  0  0  0  0  0  0  0  0
  112.7296   65.6093   40.4835 H   0  0  0  0  0  0  0  0  0  0  0  0
  112.8775   64.6248   38.9682 H   0  0  0  0  0  0  0  0  0  0  0  0
  110.9113   72.3790   36.3968 H   0  0  0  0  0  0  0  0  0  0  0  0
  111.8702   71.9510   34.9394 H   0  0  0  0  0  0  0  0  0  0  0  0
  110.0879   71.7274   34.9394 H   0  0  0  0  0  0  0  0  0  0  0  0
  106.8479   67.2884   41.4559 H   0  0  0  0  0  0  0  0  0  0  0  0
  108.2075   68.0324   40.5193 H   0  0  0  0  0  0  0  0  0  0  0  0
  110.2446   70.9552   46.0361 H   0  0  0  0  0  0  0  0  0  0  0  0
  110.0007   66.0034   35.7771 H   0  0  0  0  0  0  0  0  0  0  0  0
  1  2  2  0
  1  3  1  0
  2  8  1  0
  3 12  2  0
  4  5  2  0
  4 13  1  0
  5 16  1  0
  6  9  2  0
  6 15  1  0
  7 10  1  0
  7 15  2  0
  8 17  2  0
  9 18  1  0
 10 18  2  0
 11 16  2  0
 11 19  1  0
 12 14  1  0
 12 17  1  0
 13 19  2  0
 13 21  1  0
 14 20  2  0
 14 22  1  0
 15 26  1  0
 16 25  1  0
 17 27  1  0
 18 30  1  0
 19 31  1  0
 20 23  1  0
 20 27  1  0
 21 28  1  0
 21 29  2  0
 22 24  1  0
 23 28  1  0
 24 28  1  0
 26 27  1  0
  1 32  1  0
  2 33  1  0
  3 34  1  0
  4 35  1  0
  5 36  1  0
  6 37  1  0
  7 38  1  0
  8 39  1  0
  9 40  1  0
 10 41  1  0
 11 42  1  0
 22 43  1  0
 22 44  1  0
 23 45  1  0
 23 46  1  0
 24 47  1  0
 24 48  1  0
 25 49  1  0
 25 50  1  0
 25 51  1  0
 26 52  1  0
 26 53  1  0
 30 54  1  0
 31 55  1  0
M  END
>  <Name>  (131) 
CHEMBL72900

>  <Comment>  (131) 
 Schrodinger Suite 2021-4.

>  <s_m_entry_id>  (131) 
1116

>  <class_value>  (131) 
1

>  <s_m_Source_Path>  (131) 
C:\Users\vinicius\Desktop

>  <s_m_Source_File>  (131) 
Ligands_Saureus_o.sdf

>  <i_m_Source_File_Index>  (131) 
35

>  <r_lp_tautomer_probability>  (131) 
0.99999999999473

>  <r_epik_Ionization_Penalty>  (131) 
0.0401

>  <r_epik_State_Penalty>  (131) 
0.0329

>  <i_epik_Tot_Q>  (131) 
0

>  <i_f3d_flags>  (131) 
0

>  <s_m_job_name>  (131) 
Saureus_o

>  <FRED Chemgauss4 score>  (131) 
-11.189601

>  <Set>  (131) 
training

>  <HBA count>  (131) 
4

>  <HBD count>  (131) 
2

>  <ExactMolWt>  (131) 
412.17869262800065

>  <NumRotatableBounds>  (131) 
6

>  <FractionCsp3>  (131) 
0.19230769230769232

>  <TPSA>  (131) 
65.7

>  <LogP_WildmanCrippen>  (131) 
4.607720000000006

>  <General_Cluster>  (131) 
3

>  <Biological_Cluster>  (131) 
1

>  <Physicochemical_Cluster>  (131) 
1

>  <Structural_Cluster>  (131) 
4

$$$$
CHEMBL70618
     RDKit          3D

 54 58  0  0  0  0  0  0  0  0999 V2000
  111.8851   65.4022   33.0737 C   0  0  0  0  0  0  0  0  0  0  0  0
  111.2354   66.5767   32.7001 C   0  0  0  0  0  0  0  0  0  0  0  0
  111.9696   65.0274   34.4194 C   0  0  0  0  0  0  0  0  0  0  0  0
  109.8629   67.9030   41.9459 C   0  0  0  0  0  0  0  0  0  0  0  0
  107.7712   66.7583   41.5568 C   0  0  0  0  0  0  0  0  0  0  0  0
  109.1856   68.9039   42.6424 C   0  0  0  0  0  0  0  0  0  0  0  0
  107.0939   67.7591   42.2534 C   0  0  0  0  0  0  0  0  0  0  0  0
  111.3910   70.5894   36.2052 C   0  0  0  0  0  0  0  0  0  0  0  0
  110.0051   70.4490   34.2312 C   0  0  0  0  0  0  0  0  0  0  0  0
  110.6506   67.4121   33.6558 C   0  0  0  0  0  0  0  0  0  0  0  0
  112.1279   71.6161   35.6150 C   0  0  0  0  0  0  0  0  0  0  0  0
  110.7420   71.4758   33.6410 C   0  0  0  0  0  0  0  0  0  0  0  0
  111.3886   65.8534   35.4025 C   0  0  0  0  0  0  0  0  0  0  0  0
  109.1557   66.8302   41.4031 C   0  0  0  0  0  0  0  0  0  0  0  0
  111.2827   65.7922   36.8186 C   0  0  0  0  0  0  0  0  0  0  0  0
  107.8011   68.8320   42.7961 C   0  0  0  0  0  0  0  0  0  0  0  0
  110.3297   70.0058   35.5134 C   0  0  0  0  0  0  0  0  0  0  0  0
  110.7415   67.0265   34.9982 C   0  0  0  0  0  0  0  0  0  0  0  0
  111.8033   72.0594   34.3329 C   0  0  0  0  0  0  0  0  0  0  0  0
  110.5829   66.9054   37.2335 C   0  0  0  0  0  0  0  0  0  0  0  0
  109.8689   65.7740   40.6689 C   0  0  0  0  0  0  0  0  0  0  0  0
  111.7687   64.7775   37.7922 C   0  0  0  0  0  0  0  0  0  0  0  0
  110.2377   67.2666   38.6331 C   0  0  0  0  0  0  0  0  0  0  0  0
  111.8310   65.3934   39.2005 C   0  0  0  0  0  0  0  0  0  0  0  0
  107.0774   69.9019   43.5420 C   0  0  0  0  0  0  0  0  0  0  0  0
  109.5343   68.8984   36.1502 C   0  0  0  0  0  0  0  0  0  0  0  0
  110.2625   67.6472   36.1328 N   0  0  0  0  0  0  0  0  0  0  0  0
  110.5950   66.1363   39.5281 N   0  0  0  0  0  0  0  0  0  0  0  0
  109.7762   64.6351   41.1248 O   0  0  0  0  0  0  0  0  0  0  0  0
  112.5216   73.0622   33.7576 O   0  0  0  0  0  0  0  0  0  0  0  0
  112.3370   64.7619   32.3018 H   0  0  0  0  0  0  0  0  0  0  0  0
  111.1819   66.8508   31.6361 H   0  0  0  0  0  0  0  0  0  0  0  0
  112.4838   64.0984   34.7067 H   0  0  0  0  0  0  0  0  0  0  0  0
  110.9547   67.9597   41.8247 H   0  0  0  0  0  0  0  0  0  0  0  0
  107.2135   65.9123   41.1287 H   0  0  0  0  0  0  0  0  0  0  0  0
  109.7433   69.7499   43.0705 H   0  0  0  0  0  0  0  0  0  0  0  0
  106.0021   67.7023   42.3748 H   0  0  0  0  0  0  0  0  0  0  0  0
  111.6468   70.2399   37.2163 H   0  0  0  0  0  0  0  0  0  0  0  0
  109.1681   69.9888   33.6856 H   0  0  0  0  0  0  0  0  0  0  0  0
  110.1370   68.3399   33.3633 H   0  0  0  0  0  0  0  0  0  0  0  0
  112.9650   72.0762   36.1606 H   0  0  0  0  0  0  0  0  0  0  0  0
  110.4862   71.8253   32.6299 H   0  0  0  0  0  0  0  0  0  0  0  0
  111.0806   63.9194   37.7992 H   0  0  0  0  0  0  0  0  0  0  0  0
  112.7746   64.4441   37.4971 H   0  0  0  0  0  0  0  0  0  0  0  0
  110.7991   68.1643   38.9312 H   0  0  0  0  0  0  0  0  0  0  0  0
  109.1598   67.4726   38.7079 H   0  0  0  0  0  0  0  0  0  0  0  0
  111.9680   64.5873   39.9363 H   0  0  0  0  0  0  0  0  0  0  0  0
  112.6734   66.1002   39.2285 H   0  0  0  0  0  0  0  0  0  0  0  0
  107.1901   69.7353   44.6235 H   0  0  0  0  0  0  0  0  0  0  0  0
  107.4981   70.8829   43.2763 H   0  0  0  0  0  0  0  0  0  0  0  0
  106.0103   69.8765   43.2763 H   0  0  0  0  0  0  0  0  0  0  0  0
  109.3143   69.1699   37.1932 H   0  0  0  0  0  0  0  0  0  0  0  0
  108.6049   68.7659   35.5768 H   0  0  0  0  0  0  0  0  0  0  0  0
  112.2913   73.3769   32.8476 H   0  0  0  0  0  0  0  0  0  0  0  0
  1  2  2  0
  1  3  1  0
  2 10  1  0
  3 13  2  0
  4  6  2  0
  4 14  1  0
  5  7  1  0
  5 14  2  0
  6 16  1  0
  7 16  2  0
  8 11  2  0
  8 17  1  0
  9 12  1  0
  9 17  2  0
 10 18  2  0
 11 19  1  0
 12 19  2  0
 13 15  1  0
 13 18  1  0
 14 21  1  0
 15 20  2  0
 15 22  1  0
 16 25  1  0
 17 26  1  0
 18 27  1  0
 19 30  1  0
 20 23  1  0
 20 27  1  0
 21 28  1  0
 21 29  2  0
 22 24  1  0
 23 28  1  0
 24 28  1  0
 26 27  1  0
  1 31  1  0
  2 32  1  0
  3 33  1  0
  4 34  1  0
  5 35  1  0
  6 36  1  0
  7 37  1  0
  8 38  1  0
  9 39  1  0
 10 40  1  0
 11 41  1  0
 12 42  1  0
 22 43  1  0
 22 44  1  0
 23 45  1  0
 23 46  1  0
 24 47  1  0
 24 48  1  0
 25 49  1  0
 25 50  1  0
 25 51  1  0
 26 52  1  0
 26 53  1  0
 30 54  1  0
M  END
>  <Name>  (132) 
CHEMBL70618

>  <Comment>  (132) 
 Schrodinger Suite 2021-4.

>  <s_m_entry_id>  (132) 
1140

>  <class_value>  (132) 
1

>  <s_m_Source_Path>  (132) 
C:\Users\vinicius\Desktop

>  <s_m_Source_File>  (132) 
Ligands_Saureus_o.sdf

>  <i_m_Source_File_Index>  (132) 
54

>  <r_lp_tautomer_probability>  (132) 
0.999999999997365

>  <r_epik_Ionization_Penalty>  (132) 
0.0009

>  <r_epik_State_Penalty>  (132) 
0.0006

>  <i_epik_Tot_Q>  (132) 
0

>  <i_f3d_flags>  (132) 
0

>  <s_m_job_name>  (132) 
Saureus_o

>  <FRED Chemgauss4 score>  (132) 
-12.137747

>  <Set>  (132) 
training

>  <HBA count>  (132) 
3

>  <HBD count>  (132) 
1

>  <ExactMolWt>  (132) 
396.1837780080007

>  <NumRotatableBounds>  (132) 
5

>  <FractionCsp3>  (132) 
0.19230769230769232

>  <TPSA>  (132) 
45.47

>  <LogP_WildmanCrippen>  (132) 
4.902120000000005

>  <General_Cluster>  (132) 
3

>  <Biological_Cluster>  (132) 
1

>  <Physicochemical_Cluster>  (132) 
1

>  <Structural_Cluster>  (132) 
4

$$$$
CHEMBL4216697
     RDKit          3D

 38 40  0  0  1  0  0  0  0  0999 V2000
  109.4417   67.7393   32.2930 C   0  0  0  0  0  0  0  0  0  0  0  0
  110.0364   68.9092   31.8206 C   0  0  0  0  0  0  0  0  0  0  0  0
  109.3293   67.5040   43.2062 C   0  0  0  0  0  0  0  0  0  0  0  0
  108.3211   66.5738   43.4335 C   0  0  0  0  0  0  0  0  0  0  0  0
  109.4669   67.4454   33.6563 C   0  0  0  0  0  0  0  0  0  0  0  0
  110.6566   69.7851   32.7115 C   0  0  0  0  0  0  0  0  0  0  0  0
  110.1271   67.3932   42.0728 C   0  0  0  0  0  0  0  0  0  0  0  0
  108.1528   65.5597   42.5045 C   0  0  0  0  0  0  0  0  0  0  0  0
  110.0871   68.3213   34.5472 C   0  0  0  0  0  0  0  0  0  0  0  0
  110.6819   69.4912   34.0749 C   0  0  0  0  0  0  0  0  0  0  0  0
  109.8780   66.3423   41.2048 C   0  0  0  0  0  0  0  0  0  0  0  0
  110.7692   66.6448   36.2651 C   0  0  0  0  0  0  0  0  0  0  0  0
  110.9055   64.7613   39.4190 C   0  0  0  0  0  0  0  0  0  0  0  0
  111.3956   64.9802   37.9965 C   0  0  0  0  0  0  0  0  0  0  0  0
  110.1910   66.9267   38.7227 C   0  0  0  0  0  0  0  0  0  0  0  0
  110.7268   66.1906   39.9612 C   0  0  1  0  0  0  0  0  0  0  0  0
  110.0943   67.9677   36.0048 C   0  0  0  0  0  0  0  0  0  0  0  0
  108.9080   65.4195   41.3920 N   0  0  0  0  0  0  0  0  0  0  0  0
  110.7782   66.2283   37.5843 N   0  0  0  0  0  0  0  0  0  0  0  0
  111.2734   66.0088   35.3381 O   0  0  0  0  0  0  0  0  0  0  0  0
  111.4583   70.5990   35.1469 Cl  0  0  0  0  0  0  0  0  0  0  0  0
  108.9528   67.0484   31.5904 H   0  0  0  0  0  0  0  0  0  0  0  0
  110.0163   69.1411   30.7455 H   0  0  0  0  0  0  0  0  0  0  0  0
  109.4951   68.3242   43.9202 H   0  0  0  0  0  0  0  0  0  0  0  0
  107.6773   66.6409   44.3229 H   0  0  0  0  0  0  0  0  0  0  0  0
  108.9977   66.5229   34.0288 H   0  0  0  0  0  0  0  0  0  0  0  0
  111.1258   70.7076   32.3390 H   0  0  0  0  0  0  0  0  0  0  0  0
  110.9306   68.1170   41.8716 H   0  0  0  0  0  0  0  0  0  0  0  0
  107.3555   64.8232   42.6832 H   0  0  0  0  0  0  0  0  0  0  0  0
  109.9504   64.2157   39.4262 H   0  0  0  0  0  0  0  0  0  0  0  0
  111.5988   64.1575   40.0229 H   0  0  0  0  0  0  0  0  0  0  0  0
  112.4922   65.0628   37.9720 H   0  0  0  0  0  0  0  0  0  0  0  0
  111.1320   64.1447   37.3313 H   0  0  0  0  0  0  0  0  0  0  0  0
  109.0930   66.8718   38.6854 H   0  0  0  0  0  0  0  0  0  0  0  0
  110.4530   67.9950   38.7317 H   0  0  0  0  0  0  0  0  0  0  0  0
  111.6653   66.6041   40.3589 H   0  0  0  0  0  0  0  0  0  0  0  0
  110.6297   68.7537   36.5576 H   0  0  0  0  0  0  0  0  0  0  0  0
  109.0493   67.8858   36.3382 H   0  0  0  0  0  0  0  0  0  0  0  0
  1  2  2  0
  1  5  1  0
  2  6  1  0
  3  4  2  0
  3  7  1  0
  4  8  1  0
  5  9  2  0
  6 10  2  0
  7 11  2  0
  8 18  2  0
  9 10  1  0
  9 17  1  0
 10 21  1  0
 11 16  1  0
 11 18  1  0
 12 17  1  0
 12 19  1  0
 12 20  2  0
 13 14  1  0
 13 16  1  0
 14 19  1  0
 15 16  1  0
 15 19  1  0
  1 22  1  0
  2 23  1  0
  3 24  1  0
  4 25  1  0
  5 26  1  0
  6 27  1  0
  7 28  1  0
  8 29  1  0
 13 30  1  0
 13 31  1  0
 14 32  1  0
 14 33  1  0
 15 34  1  0
 15 35  1  0
 16 36  1  1
 17 37  1  0
 17 38  1  0
M  END
>  <Name>  (133) 
CHEMBL4216697

>  <Comment>  (133) 
 Schrodinger Suite 2021-4.

>  <s_m_entry_id>  (133) 
1483

>  <s_m_Source_Path>  (133) 
C:\Users\vinicius\Desktop

>  <s_m_Source_File>  (133) 
Ligands_Saureus_failomega.smi

>  <i_m_Source_File_Index>  (133) 
30

>  <r_epik_Ionization_Penalty>  (133) 
0.0698

>  <r_epik_State_Penalty>  (133) 
0.0612

>  <i_epik_Tot_Q>  (133) 
0

>  <i_f3d_flags>  (133) 
0

>  <s_m_job_name>  (133) 
Saureus_fail

>  <class_value>  (133) 
0

>  <FRED Chemgauss4 score>  (133) 
-13.765077

>  <Set>  (133) 
training

>  <HBA count>  (133) 
2

>  <HBD count>  (133) 
0

>  <ExactMolWt>  (133) 
300.1029408440005

>  <NumRotatableBounds>  (133) 
3

>  <FractionCsp3>  (133) 
0.29411764705882354

>  <TPSA>  (133) 
33.2

>  <LogP_WildmanCrippen>  (133) 
3.2936000000000023

>  <General_Cluster>  (133) 
2

>  <Biological_Cluster>  (133) 
2

>  <Physicochemical_Cluster>  (133) 
3

>  <Structural_Cluster>  (133) 
3

$$$$
CHEMBL583197
     RDKit          3D

 52 55  0  0  0  0  0  0  0  0999 V2000
  111.2839   73.2730   33.3975 C   0  0  0  0  0  0  0  0  0  0  0  0
  111.7656   73.2063   34.6971 C   0  0  0  0  0  0  0  0  0  0  0  0
  110.6871   72.1554   32.8080 C   0  0  0  0  0  0  0  0  0  0  0  0
  111.6619   72.0252   35.4345 C   0  0  0  0  0  0  0  0  0  0  0  0
  110.3509   67.1998   39.1505 C   0  0  0  0  0  0  0  0  0  0  0  0
  112.3123   66.0998   39.8658 C   0  0  0  0  0  0  0  0  0  0  0  0
  110.5670   70.9430   33.5294 C   0  0  0  0  0  0  0  0  0  0  0  0
  111.4937   66.4842   38.8282 C   0  0  0  0  0  0  0  0  0  0  0  0
  110.0501   67.5152   40.4866 C   0  0  0  0  0  0  0  0  0  0  0  0
  110.0023   69.6805   33.1457 C   0  0  0  0  0  0  0  0  0  0  0  0
  111.0597   70.9004   34.8373 C   0  0  0  0  0  0  0  0  0  0  0  0
  110.0770   68.7361   34.1418 C   0  0  0  0  0  0  0  0  0  0  0  0
  110.9203   67.0468   41.4868 C   0  0  0  0  0  0  0  0  0  0  0  0
  111.8191   66.1624   37.4513 C   0  0  0  0  0  0  0  0  0  0  0  0
  110.9413   66.1526   36.4201 C   0  0  0  0  0  0  0  0  0  0  0  0
  111.3936   65.7711   35.0497 C   0  0  0  0  0  0  0  0  0  0  0  0
  108.8081   68.3357   40.7581 C   0  0  0  0  0  0  0  0  0  0  0  0
  109.3867   67.4802   43.4055 C   0  0  0  0  0  0  0  0  0  0  0  0
  108.8775   68.8934   43.1355 C   0  0  0  0  0  0  0  0  0  0  0  0
  109.3998   69.4196   31.8128 C   0  0  0  0  0  0  0  0  0  0  0  0
  111.0716   66.0231   32.6188 C   0  0  0  0  0  0  0  0  0  0  0  0
  109.6016   67.3120   34.1265 C   0  0  0  0  0  0  0  0  0  0  0  0
  112.0544   66.3648   41.1649 N   0  0  0  0  0  0  0  0  0  0  0  0
  110.6986   67.2462   42.8408 N   0  0  0  0  0  0  0  0  0  0  0  0
  109.0214   69.3741   41.7626 N   0  0  0  0  0  0  0  0  0  0  0  0
  110.7083   66.3674   33.9874 N   0  0  0  0  0  0  0  0  0  0  0  0
  112.3058   64.9548   34.9116 O   0  0  0  0  0  0  0  0  0  0  0  0
  110.8228   69.3471   35.5474 S   0  0  0  0  0  0  0  0  0  0  0  0
  111.3723   74.2102   32.8285 H   0  0  0  0  0  0  0  0  0  0  0  0
  112.2336   74.0924   35.1507 H   0  0  0  0  0  0  0  0  0  0  0  0
  110.3083   72.2179   31.7772 H   0  0  0  0  0  0  0  0  0  0  0  0
  112.0441   71.9739   36.4647 H   0  0  0  0  0  0  0  0  0  0  0  0
  109.6705   67.5251   38.3497 H   0  0  0  0  0  0  0  0  0  0  0  0
  113.2301   65.5443   39.6229 H   0  0  0  0  0  0  0  0  0  0  0  0
  112.8647   65.9053   37.2266 H   0  0  0  0  0  0  0  0  0  0  0  0
  109.8902   66.4270   36.5932 H   0  0  0  0  0  0  0  0  0  0  0  0
  108.4918   68.8147   39.8198 H   0  0  0  0  0  0  0  0  0  0  0  0
  108.0395   67.6521   41.1480 H   0  0  0  0  0  0  0  0  0  0  0  0
  109.4383   67.3257   44.4934 H   0  0  0  0  0  0  0  0  0  0  0  0
  108.6878   66.7766   42.9297 H   0  0  0  0  0  0  0  0  0  0  0  0
  107.8080   68.9206   43.3914 H   0  0  0  0  0  0  0  0  0  0  0  0
  109.5038   69.5571   43.7497 H   0  0  0  0  0  0  0  0  0  0  0  0
  108.3974   68.9855   31.9421 H   0  0  0  0  0  0  0  0  0  0  0  0
  109.3211   70.3643   31.2547 H   0  0  0  0  0  0  0  0  0  0  0  0
  110.0349   68.7159   31.2547 H   0  0  0  0  0  0  0  0  0  0  0  0
  111.8700   65.2665   32.6307 H   0  0  0  0  0  0  0  0  0  0  0  0
  110.1917   65.6196   32.0963 H   0  0  0  0  0  0  0  0  0  0  0  0
  111.4273   66.9234   32.0963 H   0  0  0  0  0  0  0  0  0  0  0  0
  109.0731   67.1038   35.0685 H   0  0  0  0  0  0  0  0  0  0  0  0
  108.9354   67.1852   33.2604 H   0  0  0  0  0  0  0  0  0  0  0  0
  111.5084   67.2268   43.4770 H   0  0  0  0  0  0  0  0  0  0  0  0
  109.9734   69.7498   41.6465 H   0  0  0  0  0  0  0  0  0  0  0  0
  1  2  2  0
  1  3  1  0
  2  4  1  0
  3  7  2  0
  4 11  2  0
  5  8  2  0
  5  9  1  0
  6  8  1  0
  6 23  2  0
  7 10  1  0
  7 11  1  0
  8 14  1  0
  9 13  2  0
  9 17  1  0
 10 12  2  0
 10 20  1  0
 11 28  1  0
 12 22  1  0
 12 28  1  0
 13 23  1  0
 13 24  1  0
 14 15  2  0
 15 16  1  0
 16 26  1  0
 16 27  2  0
 17 25  1  0
 18 19  1  0
 18 24  1  0
 19 25  1  0
 21 26  1  0
 22 26  1  0
  1 29  1  0
  2 30  1  0
  3 31  1  0
  4 32  1  0
  5 33  1  0
  6 34  1  0
 14 35  1  0
 15 36  1  0
 17 37  1  0
 17 38  1  0
 18 39  1  0
 18 40  1  0
 19 41  1  0
 19 42  1  0
 20 43  1  0
 20 44  1  0
 20 45  1  0
 21 46  1  0
 21 47  1  0
 21 48  1  0
 22 49  1  0
 22 50  1  0
 24 51  1  0
 25 52  1  0
M  END
>  <Name>  (134) 
CHEMBL583197

>  <Comment>  (134) 
 Schrodinger Suite 2021-4.

>  <s_m_entry_id>  (134) 
1337

>  <class_value>  (134) 
1

>  <s_m_Source_Path>  (134) 
C:\Users\vinicius\Desktop

>  <s_m_Source_File>  (134) 
Ligands_Saureus_o.sdf

>  <i_m_Source_File_Index>  (134) 
199

>  <r_epik_Ionization_Penalty>  (134) 
1.2829

>  <r_epik_State_Penalty>  (134) 
1.2135

>  <i_epik_Tot_Q>  (134) 
0

>  <i_f3d_flags>  (134) 
0

>  <s_m_job_name>  (134) 
Saureus_o

>  <FRED Chemgauss4 score>  (134) 
-17.123360

>  <Set>  (134) 
training

>  <HBA count>  (134) 
5

>  <HBD count>  (134) 
2

>  <ExactMolWt>  (134) 
392.1670823880007

>  <NumRotatableBounds>  (134) 
6

>  <FractionCsp3>  (134) 
0.2727272727272727

>  <TPSA>  (134) 
57.260000000000005

>  <LogP_WildmanCrippen>  (134) 
3.7916200000000027

>  <General_Cluster>  (134) 
1

>  <Biological_Cluster>  (134) 
1

>  <Physicochemical_Cluster>  (134) 
1

>  <Structural_Cluster>  (134) 
2

$$$$
CHEMBL3623397
     RDKit          3D

 36 38  0  0  0  0  0  0  0  0999 V2000
  110.9480   66.0570   36.5772 C   0  0  0  0  0  0  0  0  0  0  0  0
  110.4020   66.0629   35.2937 C   0  0  0  0  0  0  0  0  0  0  0  0
  106.4564   62.1411   43.5309 C   0  0  0  0  0  0  0  0  0  0  0  0
  110.5687   68.4724   35.2339 C   0  0  0  0  0  0  0  0  0  0  0  0
  105.6484   62.1634   44.6438 C   0  0  0  0  0  0  0  0  0  0  0  0
  106.5923   64.1251   44.5418 C   0  0  0  0  0  0  0  0  0  0  0  0
  107.0696   63.4150   43.4647 C   0  0  0  0  0  0  0  0  0  0  0  0
  111.1147   68.4665   36.5175 C   0  0  0  0  0  0  0  0  0  0  0  0
  111.3043   67.2588   37.1892 C   0  0  0  0  0  0  0  0  0  0  0  0
  110.2124   67.2706   34.6220 C   0  0  0  0  0  0  0  0  0  0  0  0
  110.6687   64.9843   41.2592 C   0  0  0  0  0  0  0  0  0  0  0  0
  109.8634   67.1864   39.7683 C   0  0  0  0  0  0  0  0  0  0  0  0
  111.0649   66.6922   39.4459 C   0  0  0  0  0  0  0  0  0  0  0  0
  109.4949   65.5913   41.4606 C   0  0  0  0  0  0  0  0  0  0  0  0
  111.5595   65.5152   40.2008 C   0  0  0  0  0  0  0  0  0  0  0  0
  108.0275   63.9165   42.4640 C   0  0  0  0  0  0  0  0  0  0  0  0
  108.5694   65.1424   42.4660 C   0  0  0  0  0  0  0  0  0  0  0  0
  111.4883   69.7624   37.1581 C   0  0  0  0  0  0  0  0  0  0  0  0
  112.6480   65.0032   39.9671 O   0  0  0  0  0  0  0  0  0  0  0  0
  105.7254   63.3692   45.2655 O   0  0  0  0  0  0  0  0  0  0  0  0
  109.0443   66.6849   40.7520 O   0  0  0  0  0  0  0  0  0  0  0  0
  111.8383   67.2355   38.4486 O   0  0  0  0  0  0  0  0  0  0  0  0
  109.5389   67.2785   33.0385 Cl  0  0  0  0  0  0  0  0  0  0  0  0
  111.0976   65.1046   37.1068 H   0  0  0  0  0  0  0  0  0  0  0  0
  110.1209   65.1152   34.8112 H   0  0  0  0  0  0  0  0  0  0  0  0
  106.5975   61.3025   42.8332 H   0  0  0  0  0  0  0  0  0  0  0  0
  110.4191   69.4248   34.7042 H   0  0  0  0  0  0  0  0  0  0  0  0
  105.0264   61.3221   44.9833 H   0  0  0  0  0  0  0  0  0  0  0  0
  106.8733   65.1607   44.7837 H   0  0  0  0  0  0  0  0  0  0  0  0
  110.9654   64.1140   41.8630 H   0  0  0  0  0  0  0  0  0  0  0  0
  109.5044   68.0595   39.2037 H   0  0  0  0  0  0  0  0  0  0  0  0
  108.3203   63.2328   41.6535 H   0  0  0  0  0  0  0  0  0  0  0  0
  108.2938   65.8368   43.2733 H   0  0  0  0  0  0  0  0  0  0  0  0
  111.4568   69.6531   38.2522 H   0  0  0  0  0  0  0  0  0  0  0  0
  112.5047   70.0456   36.8470 H   0  0  0  0  0  0  0  0  0  0  0  0
  110.7787   70.5432   36.8470 H   0  0  0  0  0  0  0  0  0  0  0  0
  1  2  2  0
  1  9  1  0
  2 10  1  0
  3  5  2  0
  3  7  1  0
  4  8  1  0
  4 10  2  0
  5 20  1  0
  6  7  2  0
  6 20  1  0
  7 16  1  0
  8  9  2  0
  8 18  1  0
  9 22  1  0
 10 23  1  0
 11 14  2  0
 11 15  1  0
 12 13  2  0
 12 21  1  0
 13 15  1  0
 13 22  1  0
 14 17  1  0
 14 21  1  0
 15 19  2  0
 16 17  2  0
  1 24  1  0
  2 25  1  0
  3 26  1  0
  4 27  1  0
  5 28  1  0
  6 29  1  0
 11 30  1  0
 12 31  1  0
 16 32  1  0
 17 33  1  0
 18 34  1  0
 18 35  1  0
 18 36  1  0
M  END
>  <Name>  (135) 
CHEMBL3623397

>  <Comment>  (135) 
 Schrodinger Suite 2021-4.

>  <s_m_entry_id>  (135) 
1227

>  <class_value>  (135) 
0

>  <s_m_Source_Path>  (135) 
C:\Users\vinicius\Desktop

>  <s_m_Source_File>  (135) 
Ligands_Saureus_o.sdf

>  <i_m_Source_File_Index>  (135) 
121

>  <r_lp_tautomer_probability>  (135) 
1

>  <r_epik_Ionization_Penalty>  (135) 
0

>  <r_epik_State_Penalty>  (135) 
0

>  <i_epik_Tot_Q>  (135) 
0

>  <i_f3d_flags>  (135) 
0

>  <s_m_job_name>  (135) 
Saureus_o

>  <FRED Chemgauss4 score>  (135) 
-10.995975

>  <Set>  (135) 
training

>  <HBA count>  (135) 
4

>  <HBD count>  (135) 
0

>  <ExactMolWt>  (135) 
328.0502365760003

>  <NumRotatableBounds>  (135) 
5

>  <FractionCsp3>  (135) 
0.05555555555555555

>  <TPSA>  (135) 
52.58

>  <LogP_WildmanCrippen>  (135) 
5.157320000000003

>  <General_Cluster>  (135) 
4

>  <Biological_Cluster>  (135) 
2

>  <Physicochemical_Cluster>  (135) 
3

>  <Structural_Cluster>  (135) 
1

$$$$
CHEMBL3676401
     RDKit          3D

 49 51  0  0  0  0  0  0  0  0999 V2000
  110.2824   67.2832   39.6542 C   0  0  0  0  0  0  0  0  0  0  0  0
  112.3074   66.2152   40.2871 C   0  0  0  0  0  0  0  0  0  0  0  0
  111.4238   66.5811   39.2872 C   0  0  0  0  0  0  0  0  0  0  0  0
  110.0499   67.5784   40.9983 C   0  0  0  0  0  0  0  0  0  0  0  0
  110.9966   67.1614   41.9334 C   0  0  0  0  0  0  0  0  0  0  0  0
  109.6318   68.0069   43.8063 C   0  0  0  0  0  0  0  0  0  0  0  0
  111.6927   66.2501   37.8770 C   0  0  0  0  0  0  0  0  0  0  0  0
  110.7707   66.2224   36.9031 C   0  0  0  0  0  0  0  0  0  0  0  0
  111.0875   65.8747   35.5036 C   0  0  0  0  0  0  0  0  0  0  0  0
  108.8825   68.4147   41.4270 C   0  0  0  0  0  0  0  0  0  0  0  0
  108.4613   68.0666   42.8460 C   0  0  0  0  0  0  0  0  0  0  0  0
  109.4464   68.6786   33.9168 C   0  0  0  0  0  0  0  0  0  0  0  0
  110.8576   67.3676   32.2834 C   0  0  0  0  0  0  0  0  0  0  0  0
  109.1936   67.3833   34.6849 C   0  0  0  0  0  0  0  0  0  0  0  0
  110.5788   66.1077   33.1017 C   0  0  0  0  0  0  0  0  0  0  0  0
  109.7230   68.3942   32.4313 C   0  0  0  0  0  0  0  0  0  0  0  0
  111.6168   71.6479   31.5328 C   0  0  0  0  0  0  0  0  0  0  0  0
  110.0558   69.6833   31.6840 C   0  0  0  0  0  0  0  0  0  0  0  0
  111.2693   70.3779   32.2929 C   0  0  0  0  0  0  0  0  0  0  0  0
  112.1260   66.4943   41.5973 N   0  0  0  0  0  0  0  0  0  0  0  0
  110.7954   67.4695   43.2925 N   0  0  0  0  0  0  0  0  0  0  0  0
  110.3146   66.4519   34.5004 N   0  0  0  0  0  0  0  0  0  0  0  0
  109.5071   68.3315   44.9871 O   0  0  0  0  0  0  0  0  0  0  0  0
  112.0221   65.0958   35.3079 O   0  0  0  0  0  0  0  0  0  0  0  0
  109.5633   67.6058   38.8868 H   0  0  0  0  0  0  0  0  0  0  0  0
  113.2137   65.6629   39.9980 H   0  0  0  0  0  0  0  0  0  0  0  0
  112.7295   66.0069   37.6015 H   0  0  0  0  0  0  0  0  0  0  0  0
  109.7300   66.4703   37.1591 H   0  0  0  0  0  0  0  0  0  0  0  0
  109.1650   69.4770   41.3850 H   0  0  0  0  0  0  0  0  0  0  0  0
  108.0387   68.2159   40.7499 H   0  0  0  0  0  0  0  0  0  0  0  0
  107.9651   67.0850   42.8348 H   0  0  0  0  0  0  0  0  0  0  0  0
  107.7852   68.8607   43.1958 H   0  0  0  0  0  0  0  0  0  0  0  0
  108.5602   69.3249   34.0002 H   0  0  0  0  0  0  0  0  0  0  0  0
  110.3280   69.1752   34.3483 H   0  0  0  0  0  0  0  0  0  0  0  0
  111.7976   67.8202   32.6320 H   0  0  0  0  0  0  0  0  0  0  0  0
  110.9313   67.0830   31.2234 H   0  0  0  0  0  0  0  0  0  0  0  0
  109.0847   67.6120   35.7553 H   0  0  0  0  0  0  0  0  0  0  0  0
  108.2742   66.9155   34.3031 H   0  0  0  0  0  0  0  0  0  0  0  0
  109.7017   65.5917   32.6841 H   0  0  0  0  0  0  0  0  0  0  0  0
  111.4613   65.4525   33.0574 H   0  0  0  0  0  0  0  0  0  0  0  0
  108.8118   67.9698   31.9846 H   0  0  0  0  0  0  0  0  0  0  0  0
  111.8375   72.4543   32.2477 H   0  0  0  0  0  0  0  0  0  0  0  0
  112.4985   71.4671   30.9004 H   0  0  0  0  0  0  0  0  0  0  0  0
  110.7659   71.9412   30.9004 H   0  0  0  0  0  0  0  0  0  0  0  0
  110.2706   69.4428   30.6323 H   0  0  0  0  0  0  0  0  0  0  0  0
  109.1930   70.3614   31.7592 H   0  0  0  0  0  0  0  0  0  0  0  0
  112.1292   69.6928   32.2585 H   0  0  0  0  0  0  0  0  0  0  0  0
  111.0297   70.6491   33.3317 H   0  0  0  0  0  0  0  0  0  0  0  0
  111.5679   67.2814   43.9473 H   0  0  0  0  0  0  0  0  0  0  0  0
  1  3  2  0
  1  4  1  0
  2  3  1  0
  2 20  2  0
  3  7  1  0
  4  5  2  0
  4 10  1  0
  5 20  1  0
  5 21  1  0
  6 11  1  0
  6 21  1  0
  6 23  2  0
  7  8  2  0
  8  9  1  0
  9 22  1  0
  9 24  2  0
 10 11  1  0
 12 14  1  0
 12 16  1  0
 13 15  1  0
 13 16  1  0
 14 22  1  0
 15 22  1  0
 16 18  1  0
 17 19  1  0
 18 19  1  0
  1 25  1  0
  2 26  1  0
  7 27  1  0
  8 28  1  0
 10 29  1  0
 10 30  1  0
 11 31  1  0
 11 32  1  0
 12 33  1  0
 12 34  1  0
 13 35  1  0
 13 36  1  0
 14 37  1  0
 14 38  1  0
 15 39  1  0
 15 40  1  0
 16 41  1  0
 17 42  1  0
 17 43  1  0
 17 44  1  0
 18 45  1  0
 18 46  1  0
 19 47  1  0
 19 48  1  0
 21 49  1  0
M  END
>  <Name>  (136) 
CHEMBL3676401

>  <Comment>  (136) 
 Schrodinger Suite 2021-4.

>  <s_m_entry_id>  (136) 
1097

>  <class_value>  (136) 
1

>  <s_m_Source_Path>  (136) 
C:\Users\vinicius\Desktop

>  <s_m_Source_File>  (136) 
Ligands_Saureus_o.sdf

>  <i_m_Source_File_Index>  (136) 
20

>  <r_lp_tautomer_probability>  (136) 
1

>  <r_epik_Ionization_Penalty>  (136) 
0.0002

>  <r_epik_State_Penalty>  (136) 
0

>  <i_epik_Tot_Q>  (136) 
0

>  <i_f3d_flags>  (136) 
0

>  <s_m_job_name>  (136) 
Saureus_o

>  <FRED Chemgauss4 score>  (136) 
-15.982306

>  <Set>  (136) 
training

>  <HBA count>  (136) 
3

>  <HBD count>  (136) 
1

>  <ExactMolWt>  (136) 
327.19467704000067

>  <NumRotatableBounds>  (136) 
5

>  <FractionCsp3>  (136) 
0.5263157894736842

>  <TPSA>  (136) 
62.300000000000004

>  <LogP_WildmanCrippen>  (136) 
3.0182

>  <General_Cluster>  (136) 
1

>  <Biological_Cluster>  (136) 
1

>  <Physicochemical_Cluster>  (136) 
2

>  <Structural_Cluster>  (136) 
2

$$$$
CHEMBL42316
     RDKit          3D

 50 53  0  0  0  0  0  0  0  0999 V2000
  112.5600   70.7939   34.9233 C   0  0  0  0  0  0  0  0  0  0  0  0
  112.2240   71.9699   34.2557 C   0  0  0  0  0  0  0  0  0  0  0  0
  112.0220   69.5649   34.5245 C   0  0  0  0  0  0  0  0  0  0  0  0
  111.3422   71.9563   33.1712 C   0  0  0  0  0  0  0  0  0  0  0  0
  109.7201   67.0452   39.7641 C   0  0  0  0  0  0  0  0  0  0  0  0
  111.9201   66.3237   40.2944 C   0  0  0  0  0  0  0  0  0  0  0  0
  111.1307   69.5264   33.4338 C   0  0  0  0  0  0  0  0  0  0  0  0
  110.9329   66.5133   39.3436 C   0  0  0  0  0  0  0  0  0  0  0  0
  109.5246   67.3500   41.1119 C   0  0  0  0  0  0  0  0  0  0  0  0
  110.4148   68.4881   32.7747 C   0  0  0  0  0  0  0  0  0  0  0  0
  110.8120   70.7206   32.7836 C   0  0  0  0  0  0  0  0  0  0  0  0
  109.6886   69.0614   31.7563 C   0  0  0  0  0  0  0  0  0  0  0  0
  110.5781   67.1172   41.9953 C   0  0  0  0  0  0  0  0  0  0  0  0
  109.2119   67.8113   43.9284 C   0  0  0  0  0  0  0  0  0  0  0  0
  111.1625   66.1813   37.9494 C   0  0  0  0  0  0  0  0  0  0  0  0
  110.4592   66.6715   36.9013 C   0  0  0  0  0  0  0  0  0  0  0  0
  110.7715   66.2262   35.5112 C   0  0  0  0  0  0  0  0  0  0  0  0
  108.2690   68.0126   41.5920 C   0  0  0  0  0  0  0  0  0  0  0  0
  107.9916   67.6560   43.0438 C   0  0  0  0  0  0  0  0  0  0  0  0
  108.7763   68.4648   30.7615 C   0  0  0  0  0  0  0  0  0  0  0  0
  108.6287   67.2090   34.7908 C   0  0  0  0  0  0  0  0  0  0  0  0
  110.4435   67.0289   33.1266 C   0  0  0  0  0  0  0  0  0  0  0  0
  111.7754   66.6191   41.6055 N   0  0  0  0  0  0  0  0  0  0  0  0
  109.9349   70.4081   31.7695 N   0  0  0  0  0  0  0  0  0  0  0  0
  110.4124   67.4401   43.3557 N   0  0  0  0  0  0  0  0  0  0  0  0
  109.9920   66.7874   34.4958 N   0  0  0  0  0  0  0  0  0  0  0  0
  109.1084   68.1557   45.1056 O   0  0  0  0  0  0  0  0  0  0  0  0
  111.6571   65.3914   35.3206 O   0  0  0  0  0  0  0  0  0  0  0  0
  113.2564   70.8319   35.7739 H   0  0  0  0  0  0  0  0  0  0  0  0
  112.6595   72.9240   34.5873 H   0  0  0  0  0  0  0  0  0  0  0  0
  112.2917   68.6404   35.0560 H   0  0  0  0  0  0  0  0  0  0  0  0
  111.0749   72.8828   32.6419 H   0  0  0  0  0  0  0  0  0  0  0  0
  108.9155   67.2257   39.0360 H   0  0  0  0  0  0  0  0  0  0  0  0
  112.8824   65.9067   39.9627 H   0  0  0  0  0  0  0  0  0  0  0  0
  111.9743   65.4735   37.7259 H   0  0  0  0  0  0  0  0  0  0  0  0
  109.6544   67.4009   37.0750 H   0  0  0  0  0  0  0  0  0  0  0  0
  108.3803   69.1034   41.5035 H   0  0  0  0  0  0  0  0  0  0  0  0
  107.4277   67.6624   40.9759 H   0  0  0  0  0  0  0  0  0  0  0  0
  107.6539   66.6102   43.0908 H   0  0  0  0  0  0  0  0  0  0  0  0
  107.2224   68.3494   43.4147 H   0  0  0  0  0  0  0  0  0  0  0  0
  107.9645   67.9339   31.2804 H   0  0  0  0  0  0  0  0  0  0  0  0
  108.3506   69.2596   30.1313 H   0  0  0  0  0  0  0  0  0  0  0  0
  109.3337   67.7562   30.1313 H   0  0  0  0  0  0  0  0  0  0  0  0
  108.4862   67.2531   35.8806 H   0  0  0  0  0  0  0  0  0  0  0  0
  108.4507   68.2042   34.3572 H   0  0  0  0  0  0  0  0  0  0  0  0
  107.9200   66.4881   34.3572 H   0  0  0  0  0  0  0  0  0  0  0  0
  109.7855   66.4835   32.4341 H   0  0  0  0  0  0  0  0  0  0  0  0
  111.4834   66.6798   33.0449 H   0  0  0  0  0  0  0  0  0  0  0  0
  109.5235   71.0890   31.1153 H   0  0  0  0  0  0  0  0  0  0  0  0
  111.2421   67.3965   43.9645 H   0  0  0  0  0  0  0  0  0  0  0  0
  1  2  2  0
  1  3  1  0
  2  4  1  0
  3  7  2  0
  4 11  2  0
  5  8  2  0
  5  9  1  0
  6  8  1  0
  6 23  2  0
  7 10  1  0
  7 11  1  0
  8 15  1  0
  9 13  2  0
  9 18  1  0
 10 12  2  0
 10 22  1  0
 11 24  1  0
 12 20  1  0
 12 24  1  0
 13 23  1  0
 13 25  1  0
 14 19  1  0
 14 25  1  0
 14 27  2  0
 15 16  2  0
 16 17  1  0
 17 26  1  0
 17 28  2  0
 18 19  1  0
 21 26  1  0
 22 26  1  0
  1 29  1  0
  2 30  1  0
  3 31  1  0
  4 32  1  0
  5 33  1  0
  6 34  1  0
 15 35  1  0
 16 36  1  0
 18 37  1  0
 18 38  1  0
 19 39  1  0
 19 40  1  0
 20 41  1  0
 20 42  1  0
 20 43  1  0
 21 44  1  0
 21 45  1  0
 21 46  1  0
 22 47  1  0
 22 48  1  0
 24 49  1  0
 25 50  1  0
M  END
>  <Name>  (137) 
CHEMBL42316

>  <Comment>  (137) 
 Schrodinger Suite 2021-4.

>  <s_m_entry_id>  (137) 
1102

>  <class_value>  (137) 
1

>  <s_m_Source_Path>  (137) 
C:\Users\vinicius\Desktop

>  <s_m_Source_File>  (137) 
Ligands_Saureus_o.sdf

>  <i_m_Source_File_Index>  (137) 
24

>  <r_lp_tautomer_probability>  (137) 
1

>  <r_epik_Ionization_Penalty>  (137) 
0.0002

>  <r_epik_State_Penalty>  (137) 
0

>  <i_epik_Tot_Q>  (137) 
0

>  <i_f3d_flags>  (137) 
0

>  <s_m_job_name>  (137) 
Saureus_o

>  <FRED Chemgauss4 score>  (137) 
-13.854439

>  <Set>  (137) 
training

>  <HBA count>  (137) 
3

>  <HBD count>  (137) 
2

>  <ExactMolWt>  (137) 
374.17427594400067

>  <NumRotatableBounds>  (137) 
6

>  <FractionCsp3>  (137) 
0.22727272727272727

>  <TPSA>  (137) 
78.09

>  <LogP_WildmanCrippen>  (137) 
3.4278200000000023

>  <General_Cluster>  (137) 
1

>  <Biological_Cluster>  (137) 
1

>  <Physicochemical_Cluster>  (137) 
1

>  <Structural_Cluster>  (137) 
2

$$$$
CHEMBL42318
     RDKit          3D

 51 54  0  0  0  0  0  0  0  0999 V2000
  111.9123   72.7274   34.3991 C   0  0  0  0  0  0  0  0  0  0  0  0
  111.4821   72.7277   33.0737 C   0  0  0  0  0  0  0  0  0  0  0  0
  111.7492   71.5947   35.2049 C   0  0  0  0  0  0  0  0  0  0  0  0
  110.8768   71.5999   32.5121 C   0  0  0  0  0  0  0  0  0  0  0  0
  110.8236   69.1562   35.1712 C   0  0  0  0  0  0  0  0  0  0  0  0
  110.1848   67.0432   39.2124 C   0  0  0  0  0  0  0  0  0  0  0  0
  112.0642   65.8808   40.0634 C   0  0  0  0  0  0  0  0  0  0  0  0
  111.1416   70.4458   34.6606 C   0  0  0  0  0  0  0  0  0  0  0  0
  111.3152   66.2760   38.9726 C   0  0  0  0  0  0  0  0  0  0  0  0
  109.8435   67.3953   40.5218 C   0  0  0  0  0  0  0  0  0  0  0  0
  110.7202   70.4748   33.3295 C   0  0  0  0  0  0  0  0  0  0  0  0
  110.2263   68.4407   34.1592 C   0  0  0  0  0  0  0  0  0  0  0  0
  110.6489   66.9358   41.5757 C   0  0  0  0  0  0  0  0  0  0  0  0
  111.6976   65.9020   37.6235 C   0  0  0  0  0  0  0  0  0  0  0  0
  110.8735   65.8948   36.5490 C   0  0  0  0  0  0  0  0  0  0  0  0
  111.3797   65.4567   35.2148 C   0  0  0  0  0  0  0  0  0  0  0  0
  108.6062   68.2131   40.7868 C   0  0  0  0  0  0  0  0  0  0  0  0
  108.6652   68.8799   42.1605 C   0  0  0  0  0  0  0  0  0  0  0  0
  109.0569   67.8596   43.2222 C   0  0  0  0  0  0  0  0  0  0  0  0
  109.6090   68.8567   31.7734 C   0  0  0  0  0  0  0  0  0  0  0  0
  111.1915   65.6492   32.7646 C   0  0  0  0  0  0  0  0  0  0  0  0
  109.6977   67.0354   34.1582 C   0  0  0  0  0  0  0  0  0  0  0  0
  111.7600   66.1907   41.3443 N   0  0  0  0  0  0  0  0  0  0  0  0
  110.1686   69.2443   33.0523 N   0  0  0  0  0  0  0  0  0  0  0  0
  110.3312   67.2556   42.8901 N   0  0  0  0  0  0  0  0  0  0  0  0
  110.7728   66.0466   34.1025 N   0  0  0  0  0  0  0  0  0  0  0  0
  112.2655   64.6034   35.1466 O   0  0  0  0  0  0  0  0  0  0  0  0
  112.3857   73.6281   34.8170 H   0  0  0  0  0  0  0  0  0  0  0  0
  111.6211   73.6297   32.4597 H   0  0  0  0  0  0  0  0  0  0  0  0
  112.0912   71.6013   36.2504 H   0  0  0  0  0  0  0  0  0  0  0  0
  110.5361   71.5968   31.4662 H   0  0  0  0  0  0  0  0  0  0  0  0
  111.0201   68.7960   36.1918 H   0  0  0  0  0  0  0  0  0  0  0  0
  109.5568   67.3747   38.3723 H   0  0  0  0  0  0  0  0  0  0  0  0
  112.9645   65.2762   39.8790 H   0  0  0  0  0  0  0  0  0  0  0  0
  112.7426   65.5996   37.4604 H   0  0  0  0  0  0  0  0  0  0  0  0
  109.8264   66.2132   36.6598 H   0  0  0  0  0  0  0  0  0  0  0  0
  108.5187   68.9912   40.0142 H   0  0  0  0  0  0  0  0  0  0  0  0
  107.7349   67.5421   40.7637 H   0  0  0  0  0  0  0  0  0  0  0  0
  109.4107   69.6885   42.1406 H   0  0  0  0  0  0  0  0  0  0  0  0
  107.6740   69.2901   42.4041 H   0  0  0  0  0  0  0  0  0  0  0  0
  109.1363   68.3623   44.1974 H   0  0  0  0  0  0  0  0  0  0  0  0
  108.2881   67.0741   43.2659 H   0  0  0  0  0  0  0  0  0  0  0  0
  108.7148   68.2373   31.9370 H   0  0  0  0  0  0  0  0  0  0  0  0
  109.3323   69.7576   31.2061 H   0  0  0  0  0  0  0  0  0  0  0  0
  110.3551   68.2809   31.2061 H   0  0  0  0  0  0  0  0  0  0  0  0
  111.9875   64.8937   32.8388 H   0  0  0  0  0  0  0  0  0  0  0  0
  110.3332   65.2255   32.2225 H   0  0  0  0  0  0  0  0  0  0  0  0
  111.5698   66.5284   32.2225 H   0  0  0  0  0  0  0  0  0  0  0  0
  109.1144   66.8746   35.0769 H   0  0  0  0  0  0  0  0  0  0  0  0
  109.0719   66.9081   33.2625 H   0  0  0  0  0  0  0  0  0  0  0  0
  111.0112   67.0605   43.6388 H   0  0  0  0  0  0  0  0  0  0  0  0
  1  2  2  0
  1  3  1  0
  2  4  1  0
  3  8  2  0
  4 11  2  0
  5  8  1  0
  5 12  2  0
  6  9  2  0
  6 10  1  0
  7  9  1  0
  7 23  2  0
  8 11  1  0
  9 14  1  0
 10 13  2  0
 10 17  1  0
 11 24  1  0
 12 22  1  0
 12 24  1  0
 13 23  1  0
 13 25  1  0
 14 15  2  0
 15 16  1  0
 16 26  1  0
 16 27  2  0
 17 18  1  0
 18 19  1  0
 19 25  1  0
 20 24  1  0
 21 26  1  0
 22 26  1  0
  1 28  1  0
  2 29  1  0
  3 30  1  0
  4 31  1  0
  5 32  1  0
  6 33  1  0
  7 34  1  0
 14 35  1  0
 15 36  1  0
 17 37  1  0
 17 38  1  0
 18 39  1  0
 18 40  1  0
 19 41  1  0
 19 42  1  0
 20 43  1  0
 20 44  1  0
 20 45  1  0
 21 46  1  0
 21 47  1  0
 21 48  1  0
 22 49  1  0
 22 50  1  0
 25 51  1  0
M  END
>  <Name>  (138) 
CHEMBL42318

>  <Comment>  (138) 
 Schrodinger Suite 2021-4.

>  <s_m_entry_id>  (138) 
1228

>  <class_value>  (138) 
0

>  <s_m_Source_Path>  (138) 
C:\Users\vinicius\Desktop

>  <s_m_Source_File>  (138) 
Ligands_Saureus_o.sdf

>  <i_m_Source_File_Index>  (138) 
122

>  <r_epik_Ionization_Penalty>  (138) 
0.0431

>  <r_epik_State_Penalty>  (138) 
0.0344

>  <i_epik_Tot_Q>  (138) 
0

>  <i_f3d_flags>  (138) 
0

>  <s_m_job_name>  (138) 
Saureus_o

>  <FRED Chemgauss4 score>  (138) 
-17.490973

>  <Set>  (138) 
training

>  <HBA count>  (138) 
4

>  <HBD count>  (138) 
1

>  <ExactMolWt>  (138) 
360.19501138800075

>  <NumRotatableBounds>  (138) 
6

>  <FractionCsp3>  (138) 
0.2727272727272727

>  <TPSA>  (138) 
50.160000000000004

>  <LogP_WildmanCrippen>  (138) 
3.603200000000003

>  <General_Cluster>  (138) 
1

>  <Biological_Cluster>  (138) 
2

>  <Physicochemical_Cluster>  (138) 
1

>  <Structural_Cluster>  (138) 
2

$$$$
CHEMBL4204517
     RDKit          3D

 43 45  0  0  1  0  0  0  0  0999 V2000
  108.8389   68.7993   41.4127 C   0  0  0  0  0  0  0  0  0  0  0  0
  110.1572   68.5658   31.4946 C   0  0  0  0  0  0  0  0  0  0  0  0
  108.3811   67.9943   42.4557 C   0  0  0  0  0  0  0  0  0  0  0  0
  110.6509   69.8169   31.8644 C   0  0  0  0  0  0  0  0  0  0  0  0
  109.5325   68.2298   40.3448 C   0  0  0  0  0  0  0  0  0  0  0  0
  109.8237   67.6303   32.4740 C   0  0  0  0  0  0  0  0  0  0  0  0
  108.6170   66.6197   42.4309 C   0  0  0  0  0  0  0  0  0  0  0  0
  110.8112   70.1324   33.2136 C   0  0  0  0  0  0  0  0  0  0  0  0
  109.7683   66.8552   40.3200 C   0  0  0  0  0  0  0  0  0  0  0  0
  109.9841   67.9458   33.8233 C   0  0  0  0  0  0  0  0  0  0  0  0
  109.3105   66.0502   41.3631 C   0  0  0  0  0  0  0  0  0  0  0  0
  110.4778   69.1968   34.1931 C   0  0  0  0  0  0  0  0  0  0  0  0
  110.8297   66.2449   35.4416 C   0  0  0  0  0  0  0  0  0  0  0  0
  111.9409   66.7977   38.9018 C   0  0  0  0  0  0  0  0  0  0  0  0
  112.2433   66.3563   37.4787 C   0  0  0  0  0  0  0  0  0  0  0  0
  109.8633   66.4631   37.7808 C   0  0  0  0  0  0  0  0  0  0  0  0
  110.5228   66.2550   39.1536 C   0  0  2  0  0  0  0  0  0  0  0  0
  109.0305   63.9591   42.4608 C   0  0  0  0  0  0  0  0  0  0  0  0
  109.6160   66.9114   34.8451 C   0  0  0  0  0  0  0  0  0  0  0  0
  110.9513   66.3454   36.8160 N   0  0  0  0  0  0  0  0  0  0  0  0
  111.6342   65.6533   34.7198 O   0  0  0  0  0  0  0  0  0  0  0  0
  109.5332   64.7060   41.3547 O   0  0  0  0  0  0  0  0  0  0  0  0
  110.6896   69.6230   35.8522 Cl  0  0  0  0  0  0  0  0  0  0  0  0
  108.6530   69.8833   41.4323 H   0  0  0  0  0  0  0  0  0  0  0  0
  110.0309   68.3169   30.4306 H   0  0  0  0  0  0  0  0  0  0  0  0
  107.8341   68.4434   43.2978 H   0  0  0  0  0  0  0  0  0  0  0  0
  110.9138   70.5547   31.0920 H   0  0  0  0  0  0  0  0  0  0  0  0
  109.8935   68.8647   39.5223 H   0  0  0  0  0  0  0  0  0  0  0  0
  109.4342   66.6438   32.1824 H   0  0  0  0  0  0  0  0  0  0  0  0
  108.2561   65.9848   43.2535 H   0  0  0  0  0  0  0  0  0  0  0  0
  111.2005   71.1190   33.5052 H   0  0  0  0  0  0  0  0  0  0  0  0
  112.6604   66.3609   39.6100 H   0  0  0  0  0  0  0  0  0  0  0  0
  112.0125   67.8871   39.0365 H   0  0  0  0  0  0  0  0  0  0  0  0
  112.9252   67.0667   36.9884 H   0  0  0  0  0  0  0  0  0  0  0  0
  112.7387   65.3748   37.4428 H   0  0  0  0  0  0  0  0  0  0  0  0
  109.0998   65.6925   37.5981 H   0  0  0  0  0  0  0  0  0  0  0  0
  109.3534   67.4353   37.7111 H   0  0  0  0  0  0  0  0  0  0  0  0
  110.5302   65.2083   39.4919 H   0  0  0  0  0  0  0  0  0  0  0  0
  109.3504   64.4343   43.3999 H   0  0  0  0  0  0  0  0  0  0  0  0
  107.9316   63.9349   42.4178 H   0  0  0  0  0  0  0  0  0  0  0  0
  109.4218   62.9320   42.4178 H   0  0  0  0  0  0  0  0  0  0  0  0
  109.0459   67.3965   35.6511 H   0  0  0  0  0  0  0  0  0  0  0  0
  109.0177   66.1372   34.3424 H   0  0  0  0  0  0  0  0  0  0  0  0
  1  3  2  0
  1  5  1  0
  2  4  2  0
  2  6  1  0
  3  7  1  0
  4  8  1  0
  5  9  2  0
  6 10  2  0
  7 11  2  0
  8 12  2  0
  9 11  1  0
  9 17  1  0
 10 12  1  0
 10 19  1  0
 11 22  1  0
 12 23  1  0
 13 19  1  0
 13 20  1  0
 13 21  2  0
 14 15  1  0
 14 17  1  0
 15 20  1  0
 16 17  1  0
 16 20  1  0
 18 22  1  0
  1 24  1  0
  2 25  1  0
  3 26  1  0
  4 27  1  0
  5 28  1  0
  6 29  1  0
  7 30  1  0
  8 31  1  0
 14 32  1  0
 14 33  1  0
 15 34  1  0
 15 35  1  0
 16 36  1  0
 16 37  1  0
 17 38  1  1
 18 39  1  0
 18 40  1  0
 18 41  1  0
 19 42  1  0
 19 43  1  0
M  END
>  <Name>  (139) 
CHEMBL4204517

>  <Comment>  (139) 
 Schrodinger Suite 2021-4.

>  <s_m_entry_id>  (139) 
1433

>  <s_m_Source_Path>  (139) 
C:\Users\vinicius\Desktop

>  <s_m_Source_File>  (139) 
Ligands_Saureus_failomega.smi

>  <i_m_Source_File_Index>  (139) 
5

>  <r_lp_tautomer_probability>  (139) 
1

>  <r_epik_Ionization_Penalty>  (139) 
0

>  <r_epik_State_Penalty>  (139) 
0

>  <i_epik_Tot_Q>  (139) 
0

>  <i_f3d_flags>  (139) 
0

>  <s_m_job_name>  (139) 
Saureus_fail

>  <class_value>  (139) 
1

>  <FRED Chemgauss4 score>  (139) 
-13.453391

>  <Set>  (139) 
training

>  <HBA count>  (139) 
2

>  <HBD count>  (139) 
0

>  <ExactMolWt>  (139) 
329.11825656000053

>  <NumRotatableBounds>  (139) 
5

>  <FractionCsp3>  (139) 
0.3157894736842105

>  <TPSA>  (139) 
29.540000000000003

>  <LogP_WildmanCrippen>  (139) 
3.907200000000003

>  <General_Cluster>  (139) 
2

>  <Biological_Cluster>  (139) 
1

>  <Physicochemical_Cluster>  (139) 
3

>  <Structural_Cluster>  (139) 
3

$$$$
CHEMBL2178286
     RDKit          3D

 44 46  0  0  0  0  0  0  0  0999 V2000
  108.7925   67.5268   41.0132 C   0  0  0  0  0  0  0  0  0  0  0  0
  110.2233   68.3557   35.6530 C   0  0  0  0  0  0  0  0  0  0  0  0
  109.6993   67.6399   39.9594 C   0  0  0  0  0  0  0  0  0  0  0  0
  110.7405   68.1602   36.9335 C   0  0  0  0  0  0  0  0  0  0  0  0
  109.6996   65.3554   41.5607 C   0  0  0  0  0  0  0  0  0  0  0  0
  110.1804   65.9652   35.3053 C   0  0  0  0  0  0  0  0  0  0  0  0
  108.7927   66.3845   41.8139 C   0  0  0  0  0  0  0  0  0  0  0  0
  109.9432   67.2582   34.8389 C   0  0  0  0  0  0  0  0  0  0  0  0
  110.6976   65.7697   36.5859 C   0  0  0  0  0  0  0  0  0  0  0  0
  110.9777   66.8672   37.4000 C   0  0  0  0  0  0  0  0  0  0  0  0
  110.6062   66.6108   39.7062 C   0  0  0  0  0  0  0  0  0  0  0  0
  110.6064   65.4685   40.5068 C   0  0  0  0  0  0  0  0  0  0  0  0
  109.2150   68.8147   45.3807 C   0  0  0  0  0  0  0  0  0  0  0  0
  107.8360   66.2647   42.9253 C   0  0  0  0  0  0  0  0  0  0  0  0
  108.8167   68.3475   43.9876 C   0  0  0  0  0  0  0  0  0  0  0  0
  107.6400   67.1377   46.3416 C   0  0  0  0  0  0  0  0  0  0  0  0
  106.9034   67.1721   45.0218 C   0  0  0  0  0  0  0  0  0  0  0  0
  110.4869   67.6022   32.4155 C   0  0  0  0  0  0  0  0  0  0  0  0
  109.3908   67.4679   33.4694 C   0  0  0  0  0  0  0  0  0  0  0  0
  108.5575   68.2514   46.4503 N   0  0  0  0  0  0  0  0  0  0  0  0
  107.8798   67.2253   43.9414 N   0  0  0  0  0  0  0  0  0  0  0  0
  110.9098   64.5736   36.9988 O   0  0  0  0  0  1  0  0  0  0  0  0
  110.0583   69.7031   45.5201 O   0  0  0  0  0  0  0  0  0  0  0  0
  107.0545   65.3160   42.8726 O   0  0  0  0  0  0  0  0  0  0  0  0
  111.4910   66.7215   38.6778 O   0  0  0  0  0  0  0  0  0  0  0  0
  111.4754   64.4763   40.2693 F   0  0  0  0  0  0  0  0  0  0  0  0
  108.0773   68.3383   41.2129 H   0  0  0  0  0  0  0  0  0  0  0  0
  110.0363   69.3754   35.2851 H   0  0  0  0  0  0  0  0  0  0  0  0
  109.6992   68.5407   39.3280 H   0  0  0  0  0  0  0  0  0  0  0  0
  110.9613   69.0257   37.5755 H   0  0  0  0  0  0  0  0  0  0  0  0
  109.6997   64.4547   42.1921 H   0  0  0  0  0  0  0  0  0  0  0  0
  109.9596   65.0997   34.6632 H   0  0  0  0  0  0  0  0  0  0  0  0
  108.3530   69.1973   43.4653 H   0  0  0  0  0  0  0  0  0  0  0  0
  109.7422   67.9866   43.5151 H   0  0  0  0  0  0  0  0  0  0  0  0
  106.9101   67.1910   47.1628 H   0  0  0  0  0  0  0  0  0  0  0  0
  108.2152   66.2018   46.3987 H   0  0  0  0  0  0  0  0  0  0  0  0
  106.2867   66.2671   44.9187 H   0  0  0  0  0  0  0  0  0  0  0  0
  106.2510   68.0568   44.9804 H   0  0  0  0  0  0  0  0  0  0  0  0
  111.4609   67.7215   32.9126 H   0  0  0  0  0  0  0  0  0  0  0  0
  110.5041   66.6994   31.7872 H   0  0  0  0  0  0  0  0  0  0  0  0
  110.2856   68.4824   31.7872 H   0  0  0  0  0  0  0  0  0  0  0  0
  108.7541   66.6093   33.2098 H   0  0  0  0  0  0  0  0  0  0  0  0
  108.8169   68.4063   33.4787 H   0  0  0  0  0  0  0  0  0  0  0  0
  108.7290   68.6468   47.3858 H   0  0  0  0  0  0  0  0  0  0  0  0
  1  3  2  0
  1  7  1  0
  2  4  2  0
  2  8  1  0
  3 11  1  0
  4 10  1  0
  5  7  2  0
  5 12  1  0
  6  8  2  0
  6  9  1  0
  7 14  1  0
  8 19  1  0
  9 10  2  0
  9 22  1  0
 10 25  1  0
 11 12  2  0
 11 25  1  0
 12 26  1  0
 13 15  1  0
 13 20  1  0
 13 23  2  0
 14 21  1  0
 14 24  2  0
 15 21  1  0
 16 17  1  0
 16 20  1  0
 17 21  1  0
 18 19  1  0
  1 27  1  0
  2 28  1  0
  3 29  1  0
  4 30  1  0
  5 31  1  0
  6 32  1  0
 15 33  1  0
 15 34  1  0
 16 35  1  0
 16 36  1  0
 17 37  1  0
 17 38  1  0
 18 39  1  0
 18 40  1  0
 18 41  1  0
 19 42  1  0
 19 43  1  0
 20 44  1  0
M  CHG  1  22  -1
M  END
>  <Name>  (140) 
CHEMBL2178286

>  <Comment>  (140) 
 Schrodinger Suite 2021-4.

>  <s_m_entry_id>  (140) 
1091

>  <class_value>  (140) 
1

>  <s_m_Source_Path>  (140) 
C:\Users\vinicius\Desktop

>  <s_m_Source_File>  (140) 
Ligands_Saureus_o.sdf

>  <i_m_Source_File_Index>  (140) 
15

>  <r_lp_tautomer_probability>  (140) 
1

>  <r_epik_Ionization_Penalty>  (140) 
1.8157

>  <r_epik_State_Penalty>  (140) 
1.9305

>  <i_epik_Tot_Q>  (140) 
-1

>  <i_f3d_flags>  (140) 
0

>  <s_m_job_name>  (140) 
Saureus_o

>  <FRED Chemgauss4 score>  (140) 
-11.802090

>  <Set>  (140) 
training

>  <HBA count>  (140) 
4

>  <HBD count>  (140) 
1

>  <ExactMolWt>  (140) 
357.1256088559104

>  <NumRotatableBounds>  (140) 
5

>  <FractionCsp3>  (140) 
0.2631578947368421

>  <TPSA>  (140) 
81.7

>  <LogP_WildmanCrippen>  (140) 
1.8259999999999992

>  <General_Cluster>  (140) 
3

>  <Biological_Cluster>  (140) 
1

>  <Physicochemical_Cluster>  (140) 
4

>  <Structural_Cluster>  (140) 
4

$$$$
CHEMBL3676396
     RDKit          3D

 40 42  0  0  0  0  0  0  0  0999 V2000
  109.9814   66.8904   39.4837 C   0  0  0  0  0  0  0  0  0  0  0  0
  112.2295   66.3341   40.0110 C   0  0  0  0  0  0  0  0  0  0  0  0
  111.2339   66.4644   39.0591 C   0  0  0  0  0  0  0  0  0  0  0  0
  109.7576   67.1517   40.8362 C   0  0  0  0  0  0  0  0  0  0  0  0
  110.8230   66.9850   41.7202 C   0  0  0  0  0  0  0  0  0  0  0  0
  109.3993   67.5303   43.6595 C   0  0  0  0  0  0  0  0  0  0  0  0
  111.4979   66.1753   37.6388 C   0  0  0  0  0  0  0  0  0  0  0  0
  110.5578   65.9143   36.7182 C   0  0  0  0  0  0  0  0  0  0  0  0
  110.8729   65.6203   35.3060 C   0  0  0  0  0  0  0  0  0  0  0  0
  108.4519   67.7036   41.3227 C   0  0  0  0  0  0  0  0  0  0  0  0
  108.1983   67.2971   42.7658 C   0  0  0  0  0  0  0  0  0  0  0  0
  110.1155   68.8329   32.6694 C   0  0  0  0  0  0  0  0  0  0  0  0
  111.0265   67.6723   32.2792 C   0  0  0  0  0  0  0  0  0  0  0  0
  109.9523   68.9031   34.1852 C   0  0  0  0  0  0  0  0  0  0  0  0
  110.5467   66.3511   32.8798 C   0  0  0  0  0  0  0  0  0  0  0  0
  109.4714   67.5684   34.7447 C   0  0  0  0  0  0  0  0  0  0  0  0
  112.0573   66.5909   41.3270 N   0  0  0  0  0  0  0  0  0  0  0  0
  110.6273   67.2665   43.0859 N   0  0  0  0  0  0  0  0  0  0  0  0
  110.3479   66.4677   34.3328 N   0  0  0  0  0  0  0  0  0  0  0  0
  109.2647   67.8417   44.8428 O   0  0  0  0  0  0  0  0  0  0  0  0
  111.5865   64.6428   35.0740 O   0  0  0  0  0  0  0  0  0  0  0  0
  109.1677   67.0215   38.7552 H   0  0  0  0  0  0  0  0  0  0  0  0
  113.2229   66.0008   39.6761 H   0  0  0  0  0  0  0  0  0  0  0  0
  112.5469   66.1733   37.3077 H   0  0  0  0  0  0  0  0  0  0  0  0
  109.5029   65.9196   37.0299 H   0  0  0  0  0  0  0  0  0  0  0  0
  108.4772   68.8013   41.2563 H   0  0  0  0  0  0  0  0  0  0  0  0
  107.6431   67.3007   40.6954 H   0  0  0  0  0  0  0  0  0  0  0  0
  107.9440   66.2272   42.7904 H   0  0  0  0  0  0  0  0  0  0  0  0
  107.3755   67.9201   43.1464 H   0  0  0  0  0  0  0  0  0  0  0  0
  110.5557   69.7745   32.3094 H   0  0  0  0  0  0  0  0  0  0  0  0
  109.1268   68.6757   32.2137 H   0  0  0  0  0  0  0  0  0  0  0  0
  111.0392   67.5819   31.1830 H   0  0  0  0  0  0  0  0  0  0  0  0
  112.0338   67.8807   32.6690 H   0  0  0  0  0  0  0  0  0  0  0  0
  110.9214   69.1558   34.6402 H   0  0  0  0  0  0  0  0  0  0  0  0
  109.2033   69.6731   34.4221 H   0  0  0  0  0  0  0  0  0  0  0  0
  109.5937   66.0681   32.4089 H   0  0  0  0  0  0  0  0  0  0  0  0
  111.3140   65.5852   32.6938 H   0  0  0  0  0  0  0  0  0  0  0  0
  109.4596   67.6244   35.8432 H   0  0  0  0  0  0  0  0  0  0  0  0
  108.4626   67.3724   34.3525 H   0  0  0  0  0  0  0  0  0  0  0  0
  111.4556   67.2763   43.6980 H   0  0  0  0  0  0  0  0  0  0  0  0
  1  3  2  0
  1  4  1  0
  2  3  1  0
  2 17  2  0
  3  7  1  0
  4  5  2  0
  4 10  1  0
  5 17  1  0
  5 18  1  0
  6 11  1  0
  6 18  1  0
  6 20  2  0
  7  8  2  0
  8  9  1  0
  9 19  1  0
  9 21  2  0
 10 11  1  0
 12 13  1  0
 12 14  1  0
 13 15  1  0
 14 16  1  0
 15 19  1  0
 16 19  1  0
  1 22  1  0
  2 23  1  0
  7 24  1  0
  8 25  1  0
 10 26  1  0
 10 27  1  0
 11 28  1  0
 11 29  1  0
 12 30  1  0
 12 31  1  0
 13 32  1  0
 13 33  1  0
 14 34  1  0
 14 35  1  0
 15 36  1  0
 15 37  1  0
 16 38  1  0
 16 39  1  0
 18 40  1  0
M  END
>  <Name>  (141) 
CHEMBL3676396

>  <Comment>  (141) 
 Schrodinger Suite 2021-4.

>  <s_m_entry_id>  (141) 
1263

>  <class_value>  (141) 
0

>  <s_m_Source_Path>  (141) 
C:\Users\vinicius\Desktop

>  <s_m_Source_File>  (141) 
Ligands_Saureus_o.sdf

>  <i_m_Source_File_Index>  (141) 
154

>  <r_lp_tautomer_probability>  (141) 
1

>  <r_epik_Ionization_Penalty>  (141) 
0.0002

>  <r_epik_State_Penalty>  (141) 
0

>  <i_epik_Tot_Q>  (141) 
0

>  <i_f3d_flags>  (141) 
0

>  <s_m_job_name>  (141) 
Saureus_o

>  <FRED Chemgauss4 score>  (141) 
-14.182042

>  <Set>  (141) 
training

>  <HBA count>  (141) 
3

>  <HBD count>  (141) 
1

>  <ExactMolWt>  (141) 
285.1477268480005

>  <NumRotatableBounds>  (141) 
2

>  <FractionCsp3>  (141) 
0.4375

>  <TPSA>  (141) 
62.300000000000004

>  <LogP_WildmanCrippen>  (141) 
1.9919999999999995

>  <General_Cluster>  (141) 
2

>  <Biological_Cluster>  (141) 
2

>  <Physicochemical_Cluster>  (141) 
2

>  <Structural_Cluster>  (141) 
3

$$$$
CHEMBL3623427
     RDKit          3D

 46 48  0  0  0  0  0  0  0  0999 V2000
  106.9529   63.0921   45.2941 C   0  0  0  0  0  0  0  0  0  0  0  0
  107.0289   64.4656   45.0632 C   0  0  0  0  0  0  0  0  0  0  0  0
  107.5576   62.2013   44.4072 C   0  0  0  0  0  0  0  0  0  0  0  0
  110.1490   69.5420   34.7425 C   0  0  0  0  0  0  0  0  0  0  0  0
  107.7094   64.9483   43.9454 C   0  0  0  0  0  0  0  0  0  0  0  0
  108.2382   62.6840   43.2894 C   0  0  0  0  0  0  0  0  0  0  0  0
  110.8945   69.1020   35.8361 C   0  0  0  0  0  0  0  0  0  0  0  0
  109.9890   67.2698   33.9372 C   0  0  0  0  0  0  0  0  0  0  0  0
  109.6961   68.6259   33.7930 C   0  0  0  0  0  0  0  0  0  0  0  0
  110.7346   66.8297   35.0309 C   0  0  0  0  0  0  0  0  0  0  0  0
  108.3141   64.0575   43.0585 C   0  0  0  0  0  0  0  0  0  0  0  0
  111.1874   67.7459   35.9803 C   0  0  0  0  0  0  0  0  0  0  0  0
  110.5659   65.3053   39.9709 C   0  0  0  0  0  0  0  0  0  0  0  0
  110.4332   67.8482   38.8439 C   0  0  0  0  0  0  0  0  0  0  0  0
  111.2276   66.9870   38.1925 C   0  0  0  0  0  0  0  0  0  0  0  0
  109.8008   66.2623   40.5329 C   0  0  0  0  0  0  0  0  0  0  0  0
  111.3441   65.6106   38.7404 C   0  0  0  0  0  0  0  0  0  0  0  0
  108.8978   69.0969   32.6248 C   0  0  0  0  0  0  0  0  0  0  0  0
  111.0378   65.3743   35.1703 C   0  0  0  0  0  0  0  0  0  0  0  0
  108.8726   68.5931   40.6091 C   0  0  0  0  0  0  0  0  0  0  0  0
  109.0213   65.9340   41.7800 C   0  0  0  0  0  0  0  0  0  0  0  0
  109.7070   67.5594   39.9937 N   0  0  0  0  0  0  0  0  0  0  0  0
  112.0479   64.7597   38.2080 O   0  0  0  0  0  0  0  0  0  0  0  0
  111.9215   67.3319   37.0585 O   0  0  0  0  0  0  0  0  0  0  0  0
  108.9834   64.5325   41.9561 O   0  0  0  0  0  0  0  0  0  0  0  0
  106.4161   62.7114   46.1756 H   0  0  0  0  0  0  0  0  0  0  0  0
  106.5522   65.1681   45.7626 H   0  0  0  0  0  0  0  0  0  0  0  0
  107.4977   61.1181   44.5893 H   0  0  0  0  0  0  0  0  0  0  0  0
  109.9182   70.6115   34.6287 H   0  0  0  0  0  0  0  0  0  0  0  0
  107.7692   66.0315   43.7633 H   0  0  0  0  0  0  0  0  0  0  0  0
  108.7150   61.9815   42.5900 H   0  0  0  0  0  0  0  0  0  0  0  0
  111.2515   69.8244   36.5849 H   0  0  0  0  0  0  0  0  0  0  0  0
  109.6320   66.5474   33.1884 H   0  0  0  0  0  0  0  0  0  0  0  0
  110.6146   64.3025   40.4204 H   0  0  0  0  0  0  0  0  0  0  0  0
  110.3491   68.8661   38.4355 H   0  0  0  0  0  0  0  0  0  0  0  0
  108.0018   69.6255   32.9822 H   0  0  0  0  0  0  0  0  0  0  0  0
  109.5078   69.7798   32.0153 H   0  0  0  0  0  0  0  0  0  0  0  0
  108.5950   68.2327   32.0153 H   0  0  0  0  0  0  0  0  0  0  0  0
  111.0925   65.1117   36.2371 H   0  0  0  0  0  0  0  0  0  0  0  0
  110.2429   64.7863   34.6883 H   0  0  0  0  0  0  0  0  0  0  0  0
  112.0014   65.1527   34.6883 H   0  0  0  0  0  0  0  0  0  0  0  0
  108.9374   68.5128   41.7042 H   0  0  0  0  0  0  0  0  0  0  0  0
  109.2256   69.5857   40.2927 H   0  0  0  0  0  0  0  0  0  0  0  0
  107.8279   68.4575   40.2927 H   0  0  0  0  0  0  0  0  0  0  0  0
  109.5076   66.3999   42.6497 H   0  0  0  0  0  0  0  0  0  0  0  0
  107.9956   66.3194   41.6836 H   0  0  0  0  0  0  0  0  0  0  0  0
  1  2  2  0
  1  3  1  0
  2  5  1  0
  3  6  2  0
  4  7  2  0
  4  9  1  0
  5 11  2  0
  6 11  1  0
  7 12  1  0
  8  9  2  0
  8 10  1  0
  9 18  1  0
 10 12  2  0
 10 19  1  0
 11 25  1  0
 12 24  1  0
 13 16  2  0
 13 17  1  0
 14 15  2  0
 14 22  1  0
 15 17  1  0
 15 24  1  0
 16 21  1  0
 16 22  1  0
 17 23  2  0
 20 22  1  0
 21 25  1  0
  1 26  1  0
  2 27  1  0
  3 28  1  0
  4 29  1  0
  5 30  1  0
  6 31  1  0
  7 32  1  0
  8 33  1  0
 13 34  1  0
 14 35  1  0
 18 36  1  0
 18 37  1  0
 18 38  1  0
 19 39  1  0
 19 40  1  0
 19 41  1  0
 20 42  1  0
 20 43  1  0
 20 44  1  0
 21 45  1  0
 21 46  1  0
M  END
>  <Name>  (142) 
CHEMBL3623427

>  <Comment>  (142) 
 Schrodinger Suite 2021-4.

>  <s_m_entry_id>  (142) 
1109

>  <class_value>  (142) 
1

>  <s_m_Source_Path>  (142) 
C:\Users\vinicius\Desktop

>  <s_m_Source_File>  (142) 
Ligands_Saureus_o.sdf

>  <i_m_Source_File_Index>  (142) 
30

>  <r_lp_tautomer_probability>  (142) 
1

>  <r_epik_Ionization_Penalty>  (142) 
0

>  <r_epik_State_Penalty>  (142) 
0

>  <i_epik_Tot_Q>  (142) 
0

>  <i_f3d_flags>  (142) 
0

>  <s_m_job_name>  (142) 
Saureus_o

>  <FRED Chemgauss4 score>  (142) 
-11.820024

>  <Set>  (142) 
training

>  <HBA count>  (142) 
4

>  <HBD count>  (142) 
0

>  <ExactMolWt>  (142) 
335.15214353200054

>  <NumRotatableBounds>  (142) 
8

>  <FractionCsp3>  (142) 
0.19047619047619047

>  <TPSA>  (142) 
40.46

>  <LogP_WildmanCrippen>  (142) 
4.373440000000004

>  <General_Cluster>  (142) 
1

>  <Biological_Cluster>  (142) 
1

>  <Physicochemical_Cluster>  (142) 
1

>  <Structural_Cluster>  (142) 
5

$$$$
CHEMBL4214922
     RDKit          3D

 46 48  0  0  1  0  0  0  0  0999 V2000
  111.7604   72.3830   34.0881 C   0  0  0  0  0  0  0  0  0  0  0  0
  111.9782   72.1979   35.4533 C   0  0  0  0  0  0  0  0  0  0  0  0
  111.1236   71.3909   33.3425 C   0  0  0  0  0  0  0  0  0  0  0  0
  111.5592   71.0206   36.0730 C   0  0  0  0  0  0  0  0  0  0  0  0
  110.7046   70.2136   33.9622 C   0  0  0  0  0  0  0  0  0  0  0  0
  109.2686   67.5354   40.3181 C   0  0  0  0  0  0  0  0  0  0  0  0
  110.0578   65.4684   41.2885 C   0  0  0  0  0  0  0  0  0  0  0  0
  108.0690   67.4059   41.0178 C   0  0  0  0  0  0  0  0  0  0  0  0
  108.8582   65.3389   41.9883 C   0  0  0  0  0  0  0  0  0  0  0  0
  110.9224   70.0284   35.3275 C   0  0  0  0  0  0  0  0  0  0  0  0
  110.2630   66.5666   40.4533 C   0  0  0  0  0  0  0  0  0  0  0  0
  107.8638   66.3077   41.8530 C   0  0  0  0  0  0  0  0  0  0  0  0
  111.4942   66.0473   38.3457 C   0  0  0  0  0  0  0  0  0  0  0  0
  106.2804   65.1545   43.4301 C   0  0  0  0  0  0  0  0  0  0  0  0
  110.4491   67.4828   35.1270 C   0  0  0  0  0  0  0  0  0  0  0  0
  110.3906   66.3538   36.1437 C   0  0  0  0  0  0  0  0  0  0  0  0
  111.3399   68.3001   37.1819 C   0  0  0  0  0  0  0  0  0  0  0  0
  110.4679   68.7508   35.9990 C   0  0  1  0  0  0  0  0  0  0  0  0
  104.8972   65.3836   43.9858 C   0  0  0  0  0  0  0  0  0  0  0  0
  111.5529   66.7059   39.7008 C   0  0  0  0  0  0  0  0  0  0  0  0
  111.1041   66.8653   37.3006 N   0  0  0  0  0  0  0  0  0  0  0  0
  106.6641   66.1780   42.5532 N   0  0  0  0  0  0  0  0  0  0  0  0
  111.7767   64.8547   38.2193 O   0  0  0  0  0  0  0  0  0  0  0  0
  106.9328   64.1681   43.7561 O   0  0  0  0  0  0  0  0  0  0  0  0
  112.0908   73.3114   33.5994 H   0  0  0  0  0  0  0  0  0  0  0  0
  112.4804   72.9803   36.0412 H   0  0  0  0  0  0  0  0  0  0  0  0
  110.9519   71.5370   32.2659 H   0  0  0  0  0  0  0  0  0  0  0  0
  111.7310   70.8746   37.1497 H   0  0  0  0  0  0  0  0  0  0  0  0
  110.2024   69.4312   33.3743 H   0  0  0  0  0  0  0  0  0  0  0  0
  109.4305   68.4016   39.6596 H   0  0  0  0  0  0  0  0  0  0  0  0
  110.8420   64.7045   41.3953 H   0  0  0  0  0  0  0  0  0  0  0  0
  107.2847   68.1698   40.9110 H   0  0  0  0  0  0  0  0  0  0  0  0
  108.6963   64.4728   42.6469 H   0  0  0  0  0  0  0  0  0  0  0  0
  111.3600   67.4134   34.5143 H   0  0  0  0  0  0  0  0  0  0  0  0
  109.6094   67.4637   34.4167 H   0  0  0  0  0  0  0  0  0  0  0  0
  109.3479   66.1186   36.4033 H   0  0  0  0  0  0  0  0  0  0  0  0
  110.8325   65.4228   35.7591 H   0  0  0  0  0  0  0  0  0  0  0  0
  112.4019   68.5017   36.9781 H   0  0  0  0  0  0  0  0  0  0  0  0
  111.0891   68.8378   38.1082 H   0  0  0  0  0  0  0  0  0  0  0  0
  109.4557   69.0736   36.2839 H   0  0  0  0  0  0  0  0  0  0  0  0
  104.9379   65.3769   45.0850 H   0  0  0  0  0  0  0  0  0  0  0  0
  104.5192   66.3566   43.6388 H   0  0  0  0  0  0  0  0  0  0  0  0
  104.2257   64.5844   43.6388 H   0  0  0  0  0  0  0  0  0  0  0  0
  111.7709   67.7756   39.5659 H   0  0  0  0  0  0  0  0  0  0  0  0
  112.3408   66.2081   40.2850 H   0  0  0  0  0  0  0  0  0  0  0  0
  105.9740   66.9286   42.4073 H   0  0  0  0  0  0  0  0  0  0  0  0
  1  2  2  0
  1  3  1  0
  2  4  1  0
  3  5  2  0
  4 10  2  0
  5 10  1  0
  6  8  2  0
  6 11  1  0
  7  9  1  0
  7 11  2  0
  8 12  1  0
  9 12  2  0
 10 18  1  0
 11 20  1  0
 12 22  1  0
 13 20  1  0
 13 21  1  0
 13 23  2  0
 14 19  1  0
 14 22  1  0
 14 24  2  0
 15 16  1  0
 15 18  1  0
 16 21  1  0
 17 18  1  0
 17 21  1  0
  1 25  1  0
  2 26  1  0
  3 27  1  0
  4 28  1  0
  5 29  1  0
  6 30  1  0
  7 31  1  0
  8 32  1  0
  9 33  1  0
 15 34  1  0
 15 35  1  0
 16 36  1  0
 16 37  1  0
 17 38  1  0
 17 39  1  0
 18 40  1  1
 19 41  1  0
 19 42  1  0
 19 43  1  0
 20 44  1  0
 20 45  1  0
 22 46  1  0
M  END
>  <Name>  (143) 
CHEMBL4214922

>  <Comment>  (143) 
 Schrodinger Suite 2021-4.

>  <s_m_entry_id>  (143) 
1503

>  <s_m_Source_Path>  (143) 
C:\Users\vinicius\Desktop

>  <s_m_Source_File>  (143) 
Ligands_Saureus_failomega.smi

>  <i_m_Source_File_Index>  (143) 
37

>  <r_lp_tautomer_probability>  (143) 
1

>  <r_epik_Ionization_Penalty>  (143) 
0

>  <r_epik_State_Penalty>  (143) 
0

>  <i_epik_Tot_Q>  (143) 
0

>  <i_f3d_flags>  (143) 
0

>  <s_m_job_name>  (143) 
Saureus_fail

>  <class_value>  (143) 
0

>  <FRED Chemgauss4 score>  (143) 
-14.240575

>  <Set>  (143) 
training

>  <HBA count>  (143) 
2

>  <HBD count>  (143) 
1

>  <ExactMolWt>  (143) 
322.16812794400056

>  <NumRotatableBounds>  (143) 
5

>  <FractionCsp3>  (143) 
0.3

>  <TPSA>  (143) 
49.410000000000004

>  <LogP_WildmanCrippen>  (143) 
3.2036000000000016

>  <General_Cluster>  (143) 
2

>  <Biological_Cluster>  (143) 
2

>  <Physicochemical_Cluster>  (143) 
2

>  <Structural_Cluster>  (143) 
3

$$$$
CHEMBL567910
     RDKit          3D

 53 56  0  0  0  0  0  0  0  0999 V2000
  111.7874   72.5699   34.0813 C   0  0  0  0  0  0  0  0  0  0  0  0
  111.4016   72.4365   32.7490 C   0  0  0  0  0  0  0  0  0  0  0  0
  111.6708   71.4965   34.9718 C   0  0  0  0  0  0  0  0  0  0  0  0
  110.8885   71.2298   32.2646 C   0  0  0  0  0  0  0  0  0  0  0  0
  110.9048   69.0069   35.1113 C   0  0  0  0  0  0  0  0  0  0  0  0
  110.2721   67.1839   39.2987 C   0  0  0  0  0  0  0  0  0  0  0  0
  112.1858   66.2306   40.2827 C   0  0  0  0  0  0  0  0  0  0  0  0
  111.1561   70.2701   34.5064 C   0  0  0  0  0  0  0  0  0  0  0  0
  111.4550   66.4767   39.1465 C   0  0  0  0  0  0  0  0  0  0  0  0
  109.8339   67.6349   40.5619 C   0  0  0  0  0  0  0  0  0  0  0  0
  110.7775   70.1653   33.1662 C   0  0  0  0  0  0  0  0  0  0  0  0
  110.3879   68.1752   34.1448 C   0  0  0  0  0  0  0  0  0  0  0  0
  110.6286   67.3065   41.6608 C   0  0  0  0  0  0  0  0  0  0  0  0
  109.3102   68.1608   43.6833 C   0  0  0  0  0  0  0  0  0  0  0  0
  111.9042   66.0232   37.8439 C   0  0  0  0  0  0  0  0  0  0  0  0
  111.1181   65.8757   36.7507 C   0  0  0  0  0  0  0  0  0  0  0  0
  111.6948   65.3677   35.4711 C   0  0  0  0  0  0  0  0  0  0  0  0
  108.5499   68.4047   40.5522 C   0  0  0  0  0  0  0  0  0  0  0  0
  108.0332   68.4585   42.9689 C   0  0  0  0  0  0  0  0  0  0  0  0
  109.8237   68.3585   31.7170 C   0  0  0  0  0  0  0  0  0  0  0  0
  111.5750   65.3521   33.0090 C   0  0  0  0  0  0  0  0  0  0  0  0
  109.9507   66.7423   34.2436 C   0  0  0  0  0  0  0  0  0  0  0  0
  111.8032   66.6273   41.5138 N   0  0  0  0  0  0  0  0  0  0  0  0
  110.3152   68.8828   32.9750 N   0  0  0  0  0  0  0  0  0  0  0  0
  110.3718   67.6191   43.0134 N   0  0  0  0  0  0  0  0  0  0  0  0
  111.0881   65.8258   34.2982 N   0  0  0  0  0  0  0  0  0  0  0  0
  108.2598   69.2435   41.7383 N   0  0  0  0  0  4  0  0  0  0  0  0
  109.3701   68.3451   44.9050 O   0  0  0  0  0  0  0  0  0  0  0  0
  112.6352   64.5724   35.4969 O   0  0  0  0  0  0  0  0  0  0  0  0
  112.1884   73.5303   34.4374 H   0  0  0  0  0  0  0  0  0  0  0  0
  111.5024   73.2942   32.0677 H   0  0  0  0  0  0  0  0  0  0  0  0
  111.9772   71.6089   36.0223 H   0  0  0  0  0  0  0  0  0  0  0  0
  110.5832   71.1210   31.2134 H   0  0  0  0  0  0  0  0  0  0  0  0
  111.0905   68.7427   36.1628 H   0  0  0  0  0  0  0  0  0  0  0  0
  109.6590   67.3991   38.4111 H   0  0  0  0  0  0  0  0  0  0  0  0
  113.1334   65.6808   40.1836 H   0  0  0  0  0  0  0  0  0  0  0  0
  112.9712   65.7789   37.7349 H   0  0  0  0  0  0  0  0  0  0  0  0
  110.0497   66.1315   36.8062 H   0  0  0  0  0  0  0  0  0  0  0  0
  108.5664   69.0665   39.6737 H   0  0  0  0  0  0  0  0  0  0  0  0
  107.7587   67.6406   40.5422 H   0  0  0  0  0  0  0  0  0  0  0  0
  107.5464   67.5093   42.7005 H   0  0  0  0  0  0  0  0  0  0  0  0
  107.3979   69.0543   43.6408 H   0  0  0  0  0  0  0  0  0  0  0  0
  109.0834   67.5688   31.9131 H   0  0  0  0  0  0  0  0  0  0  0  0
  109.3520   69.1686   31.1414 H   0  0  0  0  0  0  0  0  0  0  0  0
  110.6625   67.9400   31.1414 H   0  0  0  0  0  0  0  0  0  0  0  0
  112.3551   64.5931   33.1681 H   0  0  0  0  0  0  0  0  0  0  0  0
  110.7424   64.9091   32.4429 H   0  0  0  0  0  0  0  0  0  0  0  0
  111.9950   66.1966   32.4429 H   0  0  0  0  0  0  0  0  0  0  0  0
  109.3491   66.6166   35.1559 H   0  0  0  0  0  0  0  0  0  0  0  0
  109.3641   66.5030   33.3443 H   0  0  0  0  0  0  0  0  0  0  0  0
  111.1603   67.3873   43.6342 H   0  0  0  0  0  0  0  0  0  0  0  0
  109.0586   69.8744   41.8956 H   0  0  0  0  0  0  0  0  0  0  0  0
  107.3902   69.7592   41.5414 H   0  0  0  0  0  0  0  0  0  0  0  0
  1  2  2  0
  1  3  1  0
  2  4  1  0
  3  8  2  0
  4 11  2  0
  5  8  1  0
  5 12  2  0
  6  9  2  0
  6 10  1  0
  7  9  1  0
  7 23  2  0
  8 11  1  0
  9 15  1  0
 10 13  2  0
 10 18  1  0
 11 24  1  0
 12 22  1  0
 12 24  1  0
 13 23  1  0
 13 25  1  0
 14 19  1  0
 14 25  1  0
 14 28  2  0
 15 16  2  0
 16 17  1  0
 17 26  1  0
 17 29  2  0
 18 27  1  0
 19 27  1  0
 20 24  1  0
 21 26  1  0
 22 26  1  0
  1 30  1  0
  2 31  1  0
  3 32  1  0
  4 33  1  0
  5 34  1  0
  6 35  1  0
  7 36  1  0
 15 37  1  0
 16 38  1  0
 18 39  1  0
 18 40  1  0
 19 41  1  0
 19 42  1  0
 20 43  1  0
 20 44  1  0
 20 45  1  0
 21 46  1  0
 21 47  1  0
 21 48  1  0
 22 49  1  0
 22 50  1  0
 25 51  1  0
 27 52  1  0
 27 53  1  0
M  CHG  1  27   1
M  END
>  <Name>  (144) 
CHEMBL567910

>  <Comment>  (144) 
 Schrodinger Suite 2021-4.

>  <s_m_entry_id>  (144) 
1343

>  <class_value>  (144) 
1

>  <s_m_Source_Path>  (144) 
C:\Users\vinicius\Desktop

>  <s_m_Source_File>  (144) 
Ligands_Saureus_o.sdf

>  <i_m_Source_File_Index>  (144) 
202

>  <r_epik_Ionization_Penalty>  (144) 
0.1688

>  <r_epik_State_Penalty>  (144) 
0.1581

>  <i_epik_Tot_Q>  (144) 
1

>  <i_f3d_flags>  (144) 
0

>  <s_m_job_name>  (144) 
Saureus_o

>  <FRED Chemgauss4 score>  (144) 
-17.160587

>  <Set>  (144) 
training

>  <HBA count>  (144) 
4

>  <HBD count>  (144) 
2

>  <ExactMolWt>  (144) 
390.19245142809075

>  <NumRotatableBounds>  (144) 
6

>  <FractionCsp3>  (144) 
0.22727272727272727

>  <TPSA>  (144) 
83.84

>  <LogP_WildmanCrippen>  (144) 
1.2606000000000004

>  <General_Cluster>  (144) 
1

>  <Biological_Cluster>  (144) 
1

>  <Physicochemical_Cluster>  (144) 
4

>  <Structural_Cluster>  (144) 
2

$$$$
CHEMBL3623415
     RDKit          3D

 35 37  0  0  0  0  0  0  0  0999 V2000
  109.0590   68.6292   34.1939 C   0  0  0  0  0  0  0  0  0  0  0  0
  107.1710   63.9506   45.2362 C   0  0  0  0  0  0  0  0  0  0  0  0
  107.7876   64.4507   44.0947 C   0  0  0  0  0  0  0  0  0  0  0  0
  109.8831   69.5881   34.7827 C   0  0  0  0  0  0  0  0  0  0  0  0
  109.1328   67.2984   34.6056 C   0  0  0  0  0  0  0  0  0  0  0  0
  107.3245   62.6029   45.5186 C   0  0  0  0  0  0  0  0  0  0  0  0
  108.6212   62.2677   43.6520 C   0  0  0  0  0  0  0  0  0  0  0  0
  108.5284   63.5998   43.2820 C   0  0  0  0  0  0  0  0  0  0  0  0
  110.8550   67.8857   36.1949 C   0  0  0  0  0  0  0  0  0  0  0  0
  110.7811   69.2164   35.7832 C   0  0  0  0  0  0  0  0  0  0  0  0
  110.0308   66.9267   35.6061 C   0  0  0  0  0  0  0  0  0  0  0  0
  110.9912   65.0507   39.9482 C   0  0  0  0  0  0  0  0  0  0  0  0
  110.3289   67.6090   39.0897 C   0  0  0  0  0  0  0  0  0  0  0  0
  111.2060   66.9602   38.3143 C   0  0  0  0  0  0  0  0  0  0  0  0
  110.1293   65.8257   40.6141 C   0  0  0  0  0  0  0  0  0  0  0  0
  111.6056   65.5882   38.7116 C   0  0  0  0  0  0  0  0  0  0  0  0
  109.1932   64.0988   42.0656 C   0  0  0  0  0  0  0  0  0  0  0  0
  109.4868   65.3839   41.8228 C   0  0  0  0  0  0  0  0  0  0  0  0
  108.0362   61.7455   44.7532 N   0  0  0  0  0  0  0  0  0  0  0  0
  112.4027   64.9275   38.0562 O   0  0  0  0  0  0  0  0  0  0  0  0
  109.7640   67.1000   40.2352 O   0  0  0  0  0  0  0  0  0  0  0  0
  111.7351   67.5208   37.1769 O   0  0  0  0  0  0  0  0  0  0  0  0
  111.7869   70.4270   36.4907 Cl  0  0  0  0  0  0  0  0  0  0  0  0
  110.0996   65.2721   36.0919 Cl  0  0  0  0  0  0  0  0  0  0  0  0
  108.3508   68.9223   33.4049 H   0  0  0  0  0  0  0  0  0  0  0  0
  106.5799   64.6044   45.8944 H   0  0  0  0  0  0  0  0  0  0  0  0
  107.6897   65.5153   43.8356 H   0  0  0  0  0  0  0  0  0  0  0  0
  109.8249   70.6375   34.4581 H   0  0  0  0  0  0  0  0  0  0  0  0
  108.4828   66.5422   34.1412 H   0  0  0  0  0  0  0  0  0  0  0  0
  106.8372   62.2061   46.4214 H   0  0  0  0  0  0  0  0  0  0  0  0
  109.2071   61.5934   43.0100 H   0  0  0  0  0  0  0  0  0  0  0  0
  111.2377   64.0411   40.3086 H   0  0  0  0  0  0  0  0  0  0  0  0
  110.0381   68.6260   38.7878 H   0  0  0  0  0  0  0  0  0  0  0  0
  109.4696   63.3606   41.2983 H   0  0  0  0  0  0  0  0  0  0  0  0
  109.2244   66.1349   42.5825 H   0  0  0  0  0  0  0  0  0  0  0  0
  1  4  2  0
  1  5  1  0
  2  3  2  0
  2  6  1  0
  3  8  1  0
  4 10  1  0
  5 11  2  0
  6 19  2  0
  7  8  2  0
  7 19  1  0
  8 17  1  0
  9 10  2  0
  9 11  1  0
  9 22  1  0
 10 23  1  0
 11 24  1  0
 12 15  2  0
 12 16  1  0
 13 14  2  0
 13 21  1  0
 14 16  1  0
 14 22  1  0
 15 18  1  0
 15 21  1  0
 16 20  2  0
 17 18  2  0
  1 25  1  0
  2 26  1  0
  3 27  1  0
  4 28  1  0
  5 29  1  0
  6 30  1  0
  7 31  1  0
 12 32  1  0
 13 33  1  0
 17 34  1  0
 18 35  1  0
M  END
>  <Name>  (145) 
CHEMBL3623415

>  <Comment>  (145) 
 Schrodinger Suite 2021-4.

>  <s_m_entry_id>  (145) 
1238

>  <class_value>  (145) 
0

>  <s_m_Source_Path>  (145) 
C:\Users\vinicius\Desktop

>  <s_m_Source_File>  (145) 
Ligands_Saureus_o.sdf

>  <i_m_Source_File_Index>  (145) 
131

>  <r_lp_tautomer_probability>  (145) 
1

>  <r_epik_Ionization_Penalty>  (145) 
0.0023

>  <r_epik_State_Penalty>  (145) 
0.0016

>  <i_epik_Tot_Q>  (145) 
0

>  <i_f3d_flags>  (145) 
0

>  <s_m_job_name>  (145) 
Saureus_o

>  <FRED Chemgauss4 score>  (145) 
-12.963878

>  <Set>  (145) 
training

>  <HBA count>  (145) 
4

>  <HBD count>  (145) 
0

>  <ExactMolWt>  (145) 
359.01159857200025

>  <NumRotatableBounds>  (145) 
4

>  <FractionCsp3>  (145) 
0.0

>  <TPSA>  (145) 
52.33

>  <LogP_WildmanCrippen>  (145) 
5.304300000000002

>  <General_Cluster>  (145) 
4

>  <Biological_Cluster>  (145) 
2

>  <Physicochemical_Cluster>  (145) 
3

>  <Structural_Cluster>  (145) 
1

$$$$
FULL_S18
     RDKit          3D

 48 51  0  0  0  0  0  0  0  0999 V2000
  110.0217   67.3045   31.7867 C   0  0  0  0  0  0  0  0  0  0  0  0
  110.0619   68.6970   31.8164 C   0  0  0  0  0  0  0  0  0  0  0  0
  110.1466   66.5590   32.9647 C   0  0  0  0  0  0  0  0  0  0  0  0
  110.1035   67.8174   41.1066 C   0  0  0  0  0  0  0  0  0  0  0  0
  108.1608   66.6513   40.2681 C   0  0  0  0  0  0  0  0  0  0  0  0
  110.2276   69.3878   33.0202 C   0  0  0  0  0  0  0  0  0  0  0  0
  111.6256   71.1837   35.4366 C   0  0  0  0  0  0  0  0  0  0  0  0
  109.6799   70.8635   36.8327 C   0  0  0  0  0  0  0  0  0  0  0  0
  109.2900   68.5531   41.9683 C   0  0  0  0  0  0  0  0  0  0  0  0
  107.3473   67.3870   41.1299 C   0  0  0  0  0  0  0  0  0  0  0  0
  111.7126   72.5093   35.8617 C   0  0  0  0  0  0  0  0  0  0  0  0
  109.7669   72.1892   37.2578 C   0  0  0  0  0  0  0  0  0  0  0  0
  110.4693   66.8122   35.5407 C   0  0  0  0  0  0  0  0  0  0  0  0
  110.3147   67.2335   34.1903 C   0  0  0  0  0  0  0  0  0  0  0  0
  109.5389   66.8666   40.2564 C   0  0  0  0  0  0  0  0  0  0  0  0
  110.3512   68.6295   34.1898 C   0  0  0  0  0  0  0  0  0  0  0  0
  110.6093   70.3608   35.9220 C   0  0  0  0  0  0  0  0  0  0  0  0
  107.9119   68.3379   41.9800 C   0  0  0  0  0  0  0  0  0  0  0  0
  110.7833   73.0121   36.7723 C   0  0  0  0  0  0  0  0  0  0  0  0
  110.5947   67.9395   36.3193 C   0  0  0  0  0  0  0  0  0  0  0  0
  110.3970   66.0902   39.3474 C   0  0  0  0  0  0  0  0  0  0  0  0
  112.4415   66.2367   37.9789 C   0  0  0  0  0  0  0  0  0  0  0  0
  110.7772   68.0508   37.7832 C   0  0  0  0  0  0  0  0  0  0  0  0
  110.5220   69.0307   35.4956 N   0  0  0  0  0  0  0  0  0  0  0  0
  111.1567   66.7981   38.3968 N   0  0  0  0  0  0  0  0  0  0  0  0
  110.3895   64.8695   39.5016 O   0  0  0  0  0  0  0  0  0  0  0  0
  107.1179   69.0557   42.8206 O   0  0  0  0  0  0  0  0  0  0  0  0
  110.8680   74.3052   37.1883 O   0  0  0  0  0  0  0  0  0  0  0  0
  109.8902   66.7849   30.8261 H   0  0  0  0  0  0  0  0  0  0  0  0
  109.9617   69.2616   30.8777 H   0  0  0  0  0  0  0  0  0  0  0  0
  110.1139   65.4599   32.9341 H   0  0  0  0  0  0  0  0  0  0  0  0
  111.1903   67.9870   41.0975 H   0  0  0  0  0  0  0  0  0  0  0  0
  107.7156   65.9014   39.5977 H   0  0  0  0  0  0  0  0  0  0  0  0
  110.2597   70.4870   33.0472 H   0  0  0  0  0  0  0  0  0  0  0  0
  112.3585   70.7872   34.7185 H   0  0  0  0  0  0  0  0  0  0  0  0
  108.8785   70.2145   37.2156 H   0  0  0  0  0  0  0  0  0  0  0  0
  109.7353   69.3030   42.6386 H   0  0  0  0  0  0  0  0  0  0  0  0
  106.2605   67.2173   41.1391 H   0  0  0  0  0  0  0  0  0  0  0  0
  112.5141   73.1582   35.4788 H   0  0  0  0  0  0  0  0  0  0  0  0
  109.0340   72.5857   37.9759 H   0  0  0  0  0  0  0  0  0  0  0  0
  110.4856   65.7719   35.8979 H   0  0  0  0  0  0  0  0  0  0  0  0
  113.0349   65.9774   38.8681 H   0  0  0  0  0  0  0  0  0  0  0  0
  112.2682   65.3323   37.3772 H   0  0  0  0  0  0  0  0  0  0  0  0
  112.9874   66.9783   37.3772 H   0  0  0  0  0  0  0  0  0  0  0  0
  111.5638   68.7931   37.9840 H   0  0  0  0  0  0  0  0  0  0  0  0
  109.8118   68.3525   38.2155 H   0  0  0  0  0  0  0  0  0  0  0  0
  106.1398   68.9028   42.8287 H   0  0  0  0  0  0  0  0  0  0  0  0
  110.2081   74.6615   37.8346 H   0  0  0  0  0  0  0  0  0  0  0  0
  1  2  2  0
  1  3  1  0
  2  6  1  0
  3 14  2  0
  4  9  2  0
  4 15  1  0
  5 10  1  0
  5 15  2  0
  6 16  2  0
  7 11  2  0
  7 17  1  0
  8 12  1  0
  8 17  2  0
  9 18  1  0
 10 18  2  0
 11 19  1  0
 12 19  2  0
 13 14  1  0
 13 20  2  0
 14 16  1  0
 15 21  1  0
 16 24  1  0
 17 24  1  0
 18 27  1  0
 19 28  1  0
 20 23  1  0
 20 24  1  0
 21 25  1  0
 21 26  2  0
 22 25  1  0
 23 25  1  0
  1 29  1  0
  2 30  1  0
  3 31  1  0
  4 32  1  0
  5 33  1  0
  6 34  1  0
  7 35  1  0
  8 36  1  0
  9 37  1  0
 10 38  1  0
 11 39  1  0
 12 40  1  0
 13 41  1  0
 22 42  1  0
 22 43  1  0
 22 44  1  0
 23 45  1  0
 23 46  1  0
 27 47  1  0
 28 48  1  0
M  END
>  <Name>  (146) 
FULL_S18

>  <Comment>  (146) 
 Schrodinger Suite 2021-4.

>  <s_m_entry_id>  (146) 
1373

>  <class_value>  (146) 
1

>  <s_m_Source_Path>  (146) 
C:\Users\vinicius\Desktop

>  <s_m_Source_File>  (146) 
Ligands_Saureus_o.sdf

>  <i_m_Source_File_Index>  (146) 
221

>  <r_lp_tautomer_probability>  (146) 
0.999999999997365

>  <r_epik_Ionization_Penalty>  (146) 
0.0204

>  <r_epik_State_Penalty>  (146) 
0.0121

>  <i_epik_Tot_Q>  (146) 
0

>  <i_f3d_flags>  (146) 
0

>  <s_m_job_name>  (146) 
Saureus_o

>  <FRED Chemgauss4 score>  (146) 
-12.205956

>  <Set>  (146) 
training

>  <HBA count>  (146) 
4

>  <HBD count>  (146) 
2

>  <ExactMolWt>  (146) 
372.14739250000054

>  <NumRotatableBounds>  (146) 
7

>  <FractionCsp3>  (146) 
0.08695652173913043

>  <TPSA>  (146) 
65.7

>  <LogP_WildmanCrippen>  (146) 
4.313900000000005

>  <General_Cluster>  (146) 
1

>  <Biological_Cluster>  (146) 
1

>  <Physicochemical_Cluster>  (146) 
1

>  <Structural_Cluster>  (146) 
3

$$$$
CHEMBL3621752
     RDKit          3D

 46 49  0  0  0  0  0  0  0  0999 V2000
  106.3530   62.7217   44.9658 C   0  0  0  0  0  0  0  0  0  0  0  0
  107.7451   62.7749   45.0345 C   0  0  0  0  0  0  0  0  0  0  0  0
  105.6896   63.2340   43.8508 C   0  0  0  0  0  0  0  0  0  0  0  0
  110.2795   69.8267   36.1041 C   0  0  0  0  0  0  0  0  0  0  0  0
  109.6184   69.2377   35.0263 C   0  0  0  0  0  0  0  0  0  0  0  0
  108.4739   63.3405   43.9882 C   0  0  0  0  0  0  0  0  0  0  0  0
  106.4184   63.7996   42.8045 C   0  0  0  0  0  0  0  0  0  0  0  0
  111.1426   69.0661   36.8929 C   0  0  0  0  0  0  0  0  0  0  0  0
  109.8203   67.8881   34.7373 C   0  0  0  0  0  0  0  0  0  0  0  0
  107.8105   63.8528   42.8732 C   0  0  0  0  0  0  0  0  0  0  0  0
  111.3445   67.7165   36.6039 C   0  0  0  0  0  0  0  0  0  0  0  0
  110.6834   67.1275   35.5261 C   0  0  0  0  0  0  0  0  0  0  0  0
  111.1453   64.2863   39.8386 C   0  0  0  0  0  0  0  0  0  0  0  0
  111.0322   67.0445   39.4729 C   0  0  0  0  0  0  0  0  0  0  0  0
  111.6564   66.3742   38.4940 C   0  0  0  0  0  0  0  0  0  0  0  0
  110.5437   65.0725   40.7536 C   0  0  0  0  0  0  0  0  0  0  0  0
  111.7525   64.8971   38.6257 C   0  0  0  0  0  0  0  0  0  0  0  0
  109.2525   68.6743   41.2466 C   0  0  0  0  0  0  0  0  0  0  0  0
  108.3212   67.5514   41.5961 C   0  0  0  0  0  0  0  0  0  0  0  0
  109.8070   67.3249   41.6090 C   0  0  0  0  0  0  0  0  0  0  0  0
  109.9345   64.4356   41.9760 C   0  0  0  0  0  0  0  0  0  0  0  0
  110.4656   66.4703   40.6052 N   0  0  0  0  0  0  0  0  0  0  0  0
  109.1258   67.3259   33.6287 N   0  0  0  0  0  4  0  0  0  0  0  0
  109.6675   67.3536   32.4993 O   0  0  0  0  0  1  0  0  0  0  0  0
  112.3063   64.2063   37.7780 O   0  0  0  0  0  0  0  0  0  0  0  0
  107.9945   66.8214   33.8173 O   0  0  0  0  0  0  0  0  0  0  0  0
  112.1981   66.9991   37.3974 O   0  0  0  0  0  0  0  0  0  0  0  0
  108.5281   64.4117   41.8428 O   0  0  0  0  0  0  0  0  0  0  0  0
  110.9482   65.4486   35.1841 Cl  0  0  0  0  0  0  0  0  0  0  0  0
  105.7783   62.2757   45.7909 H   0  0  0  0  0  0  0  0  0  0  0  0
  108.2682   62.3708   45.9137 H   0  0  0  0  0  0  0  0  0  0  0  0
  104.5917   63.1920   43.7966 H   0  0  0  0  0  0  0  0  0  0  0  0
  110.1202   70.8910   36.3320 H   0  0  0  0  0  0  0  0  0  0  0  0
  108.9378   69.8375   34.4042 H   0  0  0  0  0  0  0  0  0  0  0  0
  109.5718   63.3825   44.0424 H   0  0  0  0  0  0  0  0  0  0  0  0
  105.8953   64.2037   41.9253 H   0  0  0  0  0  0  0  0  0  0  0  0
  111.6640   69.5306   37.7428 H   0  0  0  0  0  0  0  0  0  0  0  0
  111.1870   63.1973   39.9883 H   0  0  0  0  0  0  0  0  0  0  0  0
  110.9627   68.1377   39.3720 H   0  0  0  0  0  0  0  0  0  0  0  0
  109.3152   69.0339   40.2089 H   0  0  0  0  0  0  0  0  0  0  0  0
  109.4042   69.7008   41.6117 H   0  0  0  0  0  0  0  0  0  0  0  0
  107.7606   67.5763   42.5422 H   0  0  0  0  0  0  0  0  0  0  0  0
  107.4655   67.0686   41.1015 H   0  0  0  0  0  0  0  0  0  0  0  0
  110.5308   66.9525   42.3489 H   0  0  0  0  0  0  0  0  0  0  0  0
  110.3106   63.4071   42.0797 H   0  0  0  0  0  0  0  0  0  0  0  0
  110.2086   65.0177   42.8682 H   0  0  0  0  0  0  0  0  0  0  0  0
  1  2  2  0
  1  3  1  0
  2  6  1  0
  3  7  2  0
  4  5  2  0
  4  8  1  0
  5  9  1  0
  6 10  2  0
  7 10  1  0
  8 11  2  0
  9 12  2  0
  9 23  1  0
 10 28  1  0
 11 12  1  0
 11 27  1  0
 12 29  1  0
 13 16  2  0
 13 17  1  0
 14 15  2  0
 14 22  1  0
 15 17  1  0
 15 27  1  0
 16 21  1  0
 16 22  1  0
 17 25  2  0
 18 19  1  0
 18 20  1  0
 19 20  1  0
 20 22  1  0
 21 28  1  0
 23 24  1  0
 23 26  2  0
  1 30  1  0
  2 31  1  0
  3 32  1  0
  4 33  1  0
  5 34  1  0
  6 35  1  0
  7 36  1  0
  8 37  1  0
 13 38  1  0
 14 39  1  0
 18 40  1  0
 18 41  1  0
 19 42  1  0
 19 43  1  0
 20 44  1  0
 21 45  1  0
 21 46  1  0
M  CHG  2  23   1  24  -1
M  END
>  <Name>  (147) 
CHEMBL3621752

>  <Comment>  (147) 
 Schrodinger Suite 2021-4.

>  <s_m_entry_id>  (147) 
1274

>  <class_value>  (147) 
0

>  <s_m_Source_Path>  (147) 
C:\Users\vinicius\Desktop

>  <s_m_Source_File>  (147) 
Ligands_Saureus_o.sdf

>  <i_m_Source_File_Index>  (147) 
161

>  <r_lp_tautomer_probability>  (147) 
1

>  <r_epik_Ionization_Penalty>  (147) 
0

>  <r_epik_State_Penalty>  (147) 
0

>  <i_epik_Tot_Q>  (147) 
0

>  <i_f3d_flags>  (147) 
0

>  <s_m_job_name>  (147) 
Saureus_o

>  <FRED Chemgauss4 score>  (147) 
-11.834166

>  <Set>  (147) 
training

>  <HBA count>  (147) 
6

>  <HBD count>  (147) 
0

>  <ExactMolWt>  (147) 
412.0825993240004

>  <NumRotatableBounds>  (147) 
7

>  <FractionCsp3>  (147) 
0.19047619047619047

>  <TPSA>  (147) 
83.60000000000001

>  <LogP_WildmanCrippen>  (147) 
5.116100000000003

>  <General_Cluster>  (147) 
1

>  <Biological_Cluster>  (147) 
2

>  <Physicochemical_Cluster>  (147) 
1

>  <Structural_Cluster>  (147) 
5

$$$$
CHEMBL3623399
     RDKit          3D

 38 40  0  0  0  0  0  0  0  0999 V2000
  106.0462   63.7000   45.1623 C   0  0  0  0  0  0  0  0  0  0  0  0
  106.8426   64.2256   44.1509 C   0  0  0  0  0  0  0  0  0  0  0  0
  110.7181   66.4988   36.2239 C   0  0  0  0  0  0  0  0  0  0  0  0
  110.0477   66.6290   35.0077 C   0  0  0  0  0  0  0  0  0  0  0  0
  110.3598   69.0233   35.0920 C   0  0  0  0  0  0  0  0  0  0  0  0
  106.3276   62.4193   45.6100 C   0  0  0  0  0  0  0  0  0  0  0  0
  108.0807   62.1950   44.1422 C   0  0  0  0  0  0  0  0  0  0  0  0
  107.8813   63.4651   43.6256 C   0  0  0  0  0  0  0  0  0  0  0  0
  111.0302   68.8931   36.3083 C   0  0  0  0  0  0  0  0  0  0  0  0
  111.2093   67.6308   36.8743 C   0  0  0  0  0  0  0  0  0  0  0  0
  109.8685   67.8912   34.4417 C   0  0  0  0  0  0  0  0  0  0  0  0
  110.8422   65.1045   40.8272 C   0  0  0  0  0  0  0  0  0  0  0  0
  110.0325   67.4513   39.5791 C   0  0  0  0  0  0  0  0  0  0  0  0
  111.1619   66.9153   39.1007 C   0  0  0  0  0  0  0  0  0  0  0  0
  109.7353   65.7602   41.1902 C   0  0  0  0  0  0  0  0  0  0  0  0
  111.6542   65.6604   39.7194 C   0  0  0  0  0  0  0  0  0  0  0  0
  108.7425   63.9932   42.5531 C   0  0  0  0  0  0  0  0  0  0  0  0
  108.8886   65.2917   42.2544 C   0  0  0  0  0  0  0  0  0  0  0  0
  111.5474   70.1157   36.9917 C   0  0  0  0  0  0  0  0  0  0  0  0
  107.3279   61.6505   45.1243 N   0  0  0  0  0  0  0  0  0  0  0  0
  112.6791   65.1066   39.3397 O   0  0  0  0  0  0  0  0  0  0  0  0
  109.2861   66.9261   40.6073 O   0  0  0  0  0  0  0  0  0  0  0  0
  111.8643   67.4856   38.0667 O   0  0  0  0  0  0  0  0  0  0  0  0
  109.0416   68.0525   32.9414 Cl  0  0  0  0  0  0  0  0  0  0  0  0
  105.2188   64.2826   45.5934 H   0  0  0  0  0  0  0  0  0  0  0  0
  106.6516   65.2389   43.7679 H   0  0  0  0  0  0  0  0  0  0  0  0
  110.8595   65.5034   36.6702 H   0  0  0  0  0  0  0  0  0  0  0  0
  109.6603   65.7363   34.4949 H   0  0  0  0  0  0  0  0  0  0  0  0
  110.2186   70.0187   34.6456 H   0  0  0  0  0  0  0  0  0  0  0  0
  105.6982   62.0024   46.4100 H   0  0  0  0  0  0  0  0  0  0  0  0
  108.9023   61.5925   43.7276 H   0  0  0  0  0  0  0  0  0  0  0  0
  111.1422   64.1772   41.3372 H   0  0  0  0  0  0  0  0  0  0  0  0
  109.6746   68.3820   39.1146 H   0  0  0  0  0  0  0  0  0  0  0  0
  109.3086   63.2666   41.9518 H   0  0  0  0  0  0  0  0  0  0  0  0
  108.3358   66.0328   42.8503 H   0  0  0  0  0  0  0  0  0  0  0  0
  111.4895   69.9788   38.0816 H   0  0  0  0  0  0  0  0  0  0  0  0
  112.5941   70.2846   36.6985 H   0  0  0  0  0  0  0  0  0  0  0  0
  110.9397   70.9845   36.6985 H   0  0  0  0  0  0  0  0  0  0  0  0
  1  2  2  0
  1  6  1  0
  2  8  1  0
  3  4  2  0
  3 10  1  0
  4 11  1  0
  5  9  1  0
  5 11  2  0
  6 20  2  0
  7  8  2  0
  7 20  1  0
  8 17  1  0
  9 10  2  0
  9 19  1  0
 10 23  1  0
 11 24  1  0
 12 15  2  0
 12 16  1  0
 13 14  2  0
 13 22  1  0
 14 16  1  0
 14 23  1  0
 15 18  1  0
 15 22  1  0
 16 21  2  0
 17 18  2  0
  1 25  1  0
  2 26  1  0
  3 27  1  0
  4 28  1  0
  5 29  1  0
  6 30  1  0
  7 31  1  0
 12 32  1  0
 13 33  1  0
 17 34  1  0
 18 35  1  0
 19 36  1  0
 19 37  1  0
 19 38  1  0
M  END
>  <Name>  (148) 
CHEMBL3623399

>  <Comment>  (148) 
 Schrodinger Suite 2021-4.

>  <s_m_entry_id>  (148) 
1232

>  <class_value>  (148) 
0

>  <s_m_Source_Path>  (148) 
C:\Users\vinicius\Desktop

>  <s_m_Source_File>  (148) 
Ligands_Saureus_o.sdf

>  <i_m_Source_File_Index>  (148) 
125

>  <r_lp_tautomer_probability>  (148) 
1

>  <r_epik_Ionization_Penalty>  (148) 
0.0023

>  <r_epik_State_Penalty>  (148) 
0.0016

>  <i_epik_Tot_Q>  (148) 
0

>  <i_f3d_flags>  (148) 
0

>  <s_m_job_name>  (148) 
Saureus_o

>  <FRED Chemgauss4 score>  (148) 
-11.967808

>  <Set>  (148) 
training

>  <HBA count>  (148) 
4

>  <HBD count>  (148) 
0

>  <ExactMolWt>  (148) 
339.06622098800034

>  <NumRotatableBounds>  (148) 
5

>  <FractionCsp3>  (148) 
0.05263157894736842

>  <TPSA>  (148) 
52.33

>  <LogP_WildmanCrippen>  (148) 
4.9593200000000035

>  <General_Cluster>  (148) 
4

>  <Biological_Cluster>  (148) 
2

>  <Physicochemical_Cluster>  (148) 
3

>  <Structural_Cluster>  (148) 
1

$$$$
CHEMBL3623400
     RDKit          3D

 36 38  0  0  0  0  0  0  0  0999 V2000
  109.9779   67.4702   42.5655 C   0  0  0  0  0  0  0  0  0  0  0  0
  109.3369   68.1890   43.5745 C   0  0  0  0  0  0  0  0  0  0  0  0
  111.7747   72.0219   35.3310 C   0  0  0  0  0  0  0  0  0  0  0  0
  107.5304   66.5847   43.5696 C   0  0  0  0  0  0  0  0  0  0  0  0
  111.8160   72.6203   34.0910 C   0  0  0  0  0  0  0  0  0  0  0  0
  110.8981   70.3408   33.9865 C   0  0  0  0  0  0  0  0  0  0  0  0
  111.2431   70.7013   35.2706 C   0  0  0  0  0  0  0  0  0  0  0  0
  108.1714   65.8660   42.5606 C   0  0  0  0  0  0  0  0  0  0  0  0
  109.3951   66.3088   42.0585 C   0  0  0  0  0  0  0  0  0  0  0  0
  108.1132   67.7462   44.0766 C   0  0  0  0  0  0  0  0  0  0  0  0
  111.1925   66.3730   37.5436 C   0  0  0  0  0  0  0  0  0  0  0  0
  109.9078   67.5564   39.7045 C   0  0  0  0  0  0  0  0  0  0  0  0
  110.2761   66.2833   39.8918 C   0  0  0  0  0  0  0  0  0  0  0  0
  110.7638   67.6388   37.5126 C   0  0  0  0  0  0  0  0  0  0  0  0
  110.9681   65.5874   38.7797 C   0  0  0  0  0  0  0  0  0  0  0  0
  111.0701   69.8052   36.4271 C   0  0  0  0  0  0  0  0  0  0  0  0
  110.9403   68.4731   36.3543 C   0  0  0  0  0  0  0  0  0  0  0  0
  107.5322   64.6262   42.0280 C   0  0  0  0  0  0  0  0  0  0  0  0
  111.3375   64.4226   38.8711 O   0  0  0  0  0  0  0  0  0  0  0  0
  110.1222   68.2765   38.5531 O   0  0  0  0  0  0  0  0  0  0  0  0
  110.0369   65.6157   41.0686 O   0  0  0  0  0  0  0  0  0  0  0  0
  111.2154   71.5915   32.8608 S   0  0  0  0  0  0  0  0  0  0  0  0
  107.3220   68.6325   45.3214 Cl  0  0  0  0  0  0  0  0  0  0  0  0
  110.9430   67.8193   42.1696 H   0  0  0  0  0  0  0  0  0  0  0  0
  109.7964   69.1050   43.9742 H   0  0  0  0  0  0  0  0  0  0  0  0
  112.1125   72.5066   36.2589 H   0  0  0  0  0  0  0  0  0  0  0  0
  106.5653   66.2356   43.9655 H   0  0  0  0  0  0  0  0  0  0  0  0
  112.1906   73.6389   33.9121 H   0  0  0  0  0  0  0  0  0  0  0  0
  110.4693   69.3645   33.7162 H   0  0  0  0  0  0  0  0  0  0  0  0
  111.6983   65.9266   36.6747 H   0  0  0  0  0  0  0  0  0  0  0  0
  109.3950   68.0648   40.5343 H   0  0  0  0  0  0  0  0  0  0  0  0
  111.0456   70.2643   37.4264 H   0  0  0  0  0  0  0  0  0  0  0  0
  110.9701   67.9962   35.3635 H   0  0  0  0  0  0  0  0  0  0  0  0
  107.2057   63.9929   42.8661 H   0  0  0  0  0  0  0  0  0  0  0  0
  106.6617   64.8977   41.4128 H   0  0  0  0  0  0  0  0  0  0  0  0
  108.2583   64.0746   41.4128 H   0  0  0  0  0  0  0  0  0  0  0  0
  1  2  2  0
  1  9  1  0
  2 10  1  0
  3  5  2  0
  3  7  1  0
  4  8  1  0
  4 10  2  0
  5 22  1  0
  6  7  2  0
  6 22  1  0
  7 16  1  0
  8  9  2  0
  8 18  1  0
  9 21  1  0
 10 23  1  0
 11 14  2  0
 11 15  1  0
 12 13  2  0
 12 20  1  0
 13 15  1  0
 13 21  1  0
 14 17  1  0
 14 20  1  0
 15 19  2  0
 16 17  2  0
  1 24  1  0
  2 25  1  0
  3 26  1  0
  4 27  1  0
  5 28  1  0
  6 29  1  0
 11 30  1  0
 12 31  1  0
 16 32  1  0
 17 33  1  0
 18 34  1  0
 18 35  1  0
 18 36  1  0
M  END
>  <Name>  (149) 
CHEMBL3623400

>  <Comment>  (149) 
 Schrodinger Suite 2021-4.

>  <s_m_entry_id>  (149) 
1233

>  <class_value>  (149) 
0

>  <s_m_Source_Path>  (149) 
C:\Users\vinicius\Desktop

>  <s_m_Source_File>  (149) 
Ligands_Saureus_o.sdf

>  <i_m_Source_File_Index>  (149) 
126

>  <r_lp_tautomer_probability>  (149) 
1

>  <r_epik_Ionization_Penalty>  (149) 
0

>  <r_epik_State_Penalty>  (149) 
0

>  <i_epik_Tot_Q>  (149) 
0

>  <i_f3d_flags>  (149) 
0

>  <s_m_job_name>  (149) 
Saureus_o

>  <FRED Chemgauss4 score>  (149) 
-11.387299

>  <Set>  (149) 
training

>  <HBA count>  (149) 
4

>  <HBD count>  (149) 
0

>  <ExactMolWt>  (149) 
344.02739295600037

>  <NumRotatableBounds>  (149) 
5

>  <FractionCsp3>  (149) 
0.05555555555555555

>  <TPSA>  (149) 
39.44

>  <LogP_WildmanCrippen>  (149) 
5.625820000000004

>  <General_Cluster>  (149) 
4

>  <Biological_Cluster>  (149) 
2

>  <Physicochemical_Cluster>  (149) 
3

>  <Structural_Cluster>  (149) 
1

$$$$
FULL_S4
     RDKit          3D

 55 59  0  0  1  0  0  0  0  0999 V2000
  111.5928   72.2673   31.1030 C   0  0  0  0  0  0  0  0  0  0  0  0
  111.7597   73.1998   32.1245 C   0  0  0  0  0  0  0  0  0  0  0  0
  111.3041   70.9294   31.3946 C   0  0  0  0  0  0  0  0  0  0  0  0
  111.9716   65.1811   37.9875 C   0  0  0  0  0  0  0  0  0  0  0  0
  111.9315   65.1245   39.3782 C   0  0  0  0  0  0  0  0  0  0  0  0
  111.6441   72.8270   33.4666 C   0  0  0  0  0  0  0  0  0  0  0  0
  110.0496   66.6297   38.0153 C   0  0  0  0  0  0  0  0  0  0  0  0
  111.1817   70.5283   32.7401 C   0  0  0  0  0  0  0  0  0  0  0  0
  111.0308   65.9377   37.3045 C   0  0  0  0  0  0  0  0  0  0  0  0
  110.9521   65.8261   40.1083 C   0  0  0  0  0  0  0  0  0  0  0  0
  110.9047   69.2950   33.3903 C   0  0  0  0  0  0  0  0  0  0  0  0
  111.3553   71.4862   33.7455 C   0  0  0  0  0  0  0  0  0  0  0  0
  109.9796   66.5859   39.4230 C   0  0  0  0  0  0  0  0  0  0  0  0
  110.9214   69.5266   34.7495 C   0  0  0  0  0  0  0  0  0  0  0  0
  109.7955   67.8255   42.2585 C   0  0  0  0  0  0  0  0  0  0  0  0
  111.0646   66.0073   35.8357 C   0  0  0  0  0  0  0  0  0  0  0  0
  106.8997   68.1704   43.1328 C   0  0  0  0  0  0  0  0  0  0  0  0
  110.6439   67.9370   32.8408 C   0  0  0  0  0  0  0  0  0  0  0  0
  110.9817   65.7123   41.6134 C   0  0  0  0  0  0  0  0  0  0  0  0
  110.6771   68.5288   35.8235 C   0  0  0  0  0  0  0  0  0  0  0  0
  109.9381   67.0725   33.8996 C   0  0  0  0  0  0  0  0  0  0  0  0
  108.6273   67.2638   41.4518 C   0  0  1  0  0  0  0  0  0  0  0  0
  112.1500   67.4667   42.9395 C   0  0  0  0  0  0  0  0  0  0  0  0
  107.3586   68.0877   41.6804 C   0  0  0  0  0  0  0  0  0  0  0  0
  111.1897   70.8491   34.9575 N   0  0  0  0  0  0  0  0  0  0  0  0
  108.9617   67.3033   40.0372 N   0  0  0  0  0  0  0  0  0  0  0  0
  110.9359   67.0181   42.2720 N   0  0  0  0  0  0  0  0  0  0  0  0
  110.5994   67.1745   35.2184 N   0  0  0  0  0  0  0  0  0  0  0  0
  107.1431   67.1759   43.8697 O   0  0  0  0  0  1  0  0  0  0  0  0
  109.7168   68.9132   42.8319 O   0  0  0  0  0  0  0  0  0  0  0  0
  111.5002   65.0157   35.2523 O   0  0  0  0  0  0  0  0  0  0  0  0
  106.3185   69.2572   43.4192 O   0  0  0  0  0  0  0  0  0  0  0  0
  111.6891   72.5865   30.0547 H   0  0  0  0  0  0  0  0  0  0  0  0
  111.9860   74.2459   31.8708 H   0  0  0  0  0  0  0  0  0  0  0  0
  111.1741   70.1988   30.5826 H   0  0  0  0  0  0  0  0  0  0  0  0
  112.7451   64.6289   37.4336 H   0  0  0  0  0  0  0  0  0  0  0  0
  112.6777   64.5214   39.9162 H   0  0  0  0  0  0  0  0  0  0  0  0
  111.7754   73.5613   34.2750 H   0  0  0  0  0  0  0  0  0  0  0  0
  109.3096   67.2264   37.4618 H   0  0  0  0  0  0  0  0  0  0  0  0
  110.0027   68.0202   31.9509 H   0  0  0  0  0  0  0  0  0  0  0  0
  111.5997   67.4667   32.5666 H   0  0  0  0  0  0  0  0  0  0  0  0
  110.1136   65.1211   41.9402 H   0  0  0  0  0  0  0  0  0  0  0  0
  111.9282   65.2275   41.8948 H   0  0  0  0  0  0  0  0  0  0  0  0
  111.5017   68.5608   36.5508 H   0  0  0  0  0  0  0  0  0  0  0  0
  109.7325   68.7604   36.3374 H   0  0  0  0  0  0  0  0  0  0  0  0
  108.8952   67.4086   33.9968 H   0  0  0  0  0  0  0  0  0  0  0  0
  109.9853   66.0233   33.5726 H   0  0  0  0  0  0  0  0  0  0  0  0
  108.4436   66.2297   41.7786 H   0  0  0  0  0  0  0  0  0  0  0  0
  112.0098   67.4149   44.0293 H   0  0  0  0  0  0  0  0  0  0  0  0
  112.9899   66.8195   42.6467 H   0  0  0  0  0  0  0  0  0  0  0  0
  112.3673   68.5045   42.6467 H   0  0  0  0  0  0  0  0  0  0  0  0
  106.5471   67.6362   41.0908 H   0  0  0  0  0  0  0  0  0  0  0  0
  107.5992   69.1163   41.3738 H   0  0  0  0  0  0  0  0  0  0  0  0
  111.2581   71.3024   35.8799 H   0  0  0  0  0  0  0  0  0  0  0  0
  108.3930   67.9180   39.4376 H   0  0  0  0  0  0  0  0  0  0  0  0
  1  2  2  0
  1  3  1  0
  2  6  1  0
  3  8  2  0
  4  5  2  0
  4  9  1  0
  5 10  1  0
  6 12  2  0
  7  9  2  0
  7 13  1  0
  8 11  1  0
  8 12  1  0
  9 16  1  0
 10 13  2  0
 10 19  1  0
 11 14  2  0
 11 18  1  0
 12 25  1  0
 13 26  1  0
 14 20  1  0
 14 25  1  0
 15 22  1  0
 15 27  1  0
 15 30  2  0
 16 28  1  0
 16 31  2  0
 17 24  1  0
 17 29  1  0
 17 32  2  0
 18 21  1  0
 19 27  1  0
 20 28  1  0
 21 28  1  0
 22 24  1  0
 22 26  1  0
 23 27  1  0
  1 33  1  0
  2 34  1  0
  3 35  1  0
  4 36  1  0
  5 37  1  0
  6 38  1  0
  7 39  1  0
 18 40  1  0
 18 41  1  0
 19 42  1  0
 19 43  1  0
 20 44  1  0
 20 45  1  0
 21 46  1  0
 21 47  1  0
 22 48  1  1
 23 49  1  0
 23 50  1  0
 23 51  1  0
 24 52  1  0
 24 53  1  0
 25 54  1  0
 26 55  1  0
M  CHG  1  29  -1
M  END
>  <Name>  (150) 
FULL_S4

>  <Comment>  (150) 
 Schrodinger Suite 2021-4.

>  <s_m_entry_id>  (150) 
1365

>  <class_value>  (150) 
0

>  <s_m_Source_Path>  (150) 
C:\Users\vinicius\Desktop

>  <s_m_Source_File>  (150) 
Ligands_Saureus_o.sdf

>  <i_m_Source_File_Index>  (150) 
216

>  <r_epik_Ionization_Penalty>  (150) 
0.0059

>  <r_epik_State_Penalty>  (150) 
0.0043

>  <i_epik_Tot_Q>  (150) 
-1

>  <i_f3d_flags>  (150) 
0

>  <s_m_job_name>  (150) 
Saureus_o

>  <FRED Chemgauss4 score>  (150) 
-12.689416

>  <Set>  (150) 
training

>  <HBA count>  (150) 
5

>  <HBD count>  (150) 
2

>  <ExactMolWt>  (150) 
431.17247879591065

>  <NumRotatableBounds>  (150) 
4

>  <FractionCsp3>  (150) 
0.2916666666666667

>  <TPSA>  (150) 
108.57

>  <LogP_WildmanCrippen>  (150) 
1.2589000000000001

>  <General_Cluster>  (150) 
5

>  <Biological_Cluster>  (150) 
2

>  <Physicochemical_Cluster>  (150) 
4

>  <Structural_Cluster>  (150) 
4

$$$$
Ghattas_MN02
     RDKit          3D

 26 27  0  0  0  0  0  0  0  0999 V2000
  109.8616   66.9843   37.3210 C   0  0  0  0  0  0  0  0  0  0  0  0
  110.1554   69.2050   34.8316 C   0  0  0  0  0  0  0  0  0  0  0  0
  110.4930   66.7044   38.5328 C   0  0  0  0  0  0  0  0  0  0  0  0
  110.6557   70.3438   34.2003 C   0  0  0  0  0  0  0  0  0  0  0  0
  112.0770   65.2899   37.3806 C   0  0  0  0  0  0  0  0  0  0  0  0
  111.1747   69.0294   32.2406 C   0  0  0  0  0  0  0  0  0  0  0  0
  110.3377   66.4170   36.1390 C   0  0  0  0  0  0  0  0  0  0  0  0
  110.1648   67.9784   34.1675 C   0  0  0  0  0  0  0  0  0  0  0  0
  111.4454   65.5698   36.1688 C   0  0  0  0  0  0  0  0  0  0  0  0
  110.6744   67.8906   32.8720 C   0  0  0  0  0  0  0  0  0  0  0  0
  111.6008   65.8572   38.5626 C   0  0  0  0  0  0  0  0  0  0  0  0
  111.1653   70.2560   32.9048 C   0  0  0  0  0  0  0  0  0  0  0  0
  109.6191   66.7539   34.8678 C   0  0  0  0  0  0  0  0  0  0  0  0
  111.8988   65.0381   35.0929 O   0  0  0  0  0  1  0  0  0  0  0  0
  110.6903   66.7004   32.2091 O   0  0  0  0  0  0  0  0  0  0  0  0
  112.3786   65.5130   40.0589 Cl  0  0  0  0  0  0  0  0  0  0  0  0
  111.7805   71.6618   32.1264 Cl  0  0  0  0  0  0  0  0  0  0  0  0
  108.9881   67.6525   37.2975 H   0  0  0  0  0  0  0  0  0  0  0  0
  109.7534   69.2743   35.8532 H   0  0  0  0  0  0  0  0  0  0  0  0
  110.1174   67.1517   39.4649 H   0  0  0  0  0  0  0  0  0  0  0  0
  110.6484   71.3111   34.7241 H   0  0  0  0  0  0  0  0  0  0  0  0
  112.9506   64.6218   37.4041 H   0  0  0  0  0  0  0  0  0  0  0  0
  111.5766   68.9602   31.2190 H   0  0  0  0  0  0  0  0  0  0  0  0
  109.7027   65.8965   34.1838 H   0  0  0  0  0  0  0  0  0  0  0  0
  108.5759   66.9756   35.1371 H   0  0  0  0  0  0  0  0  0  0  0  0
  110.3380   65.8853   32.6468 H   0  0  0  0  0  0  0  0  0  0  0  0
  1  3  2  0
  1  7  1  0
  2  4  2  0
  2  8  1  0
  3 11  1  0
  4 12  1  0
  5  9  1  0
  5 11  2  0
  6 10  1  0
  6 12  2  0
  7  9  2  0
  7 13  1  0
  8 10  2  0
  8 13  1  0
  9 14  1  0
 10 15  1  0
 11 16  1  0
 12 17  1  0
  1 18  1  0
  2 19  1  0
  3 20  1  0
  4 21  1  0
  5 22  1  0
  6 23  1  0
 13 24  1  0
 13 25  1  0
 15 26  1  0
M  CHG  1  14  -1
M  END
>  <Name>  (151) 
Ghattas_MN02

>  <Comment>  (151) 
 Schrodinger Suite 2021-4.

>  <s_m_entry_id>  (151) 
1070

>  <class_value>  (151) 
0

>  <s_m_Source_Path>  (151) 
C:\Users\vinicius\Desktop

>  <s_m_Source_File>  (151) 
Ligands_Saureus_o.sdf

>  <i_m_Source_File_Index>  (151) 
1

>  <r_lp_tautomer_probability>  (151) 
0.999999999997365

>  <r_epik_Ionization_Penalty>  (151) 
0.626

>  <r_epik_State_Penalty>  (151) 
0.6424

>  <i_epik_Tot_Q>  (151) 
-1

>  <i_f3d_flags>  (151) 
0

>  <s_m_job_name>  (151) 
Saureus_o

>  <FRED Chemgauss4 score>  (151) 
-13.544253

>  <Set>  (151) 
training

>  <HBA count>  (151) 
2

>  <HBD count>  (151) 
1

>  <ExactMolWt>  (151) 
266.99850846791026

>  <NumRotatableBounds>  (151) 
3

>  <FractionCsp3>  (151) 
0.07692307692307693

>  <TPSA>  (151) 
43.29

>  <LogP_WildmanCrippen>  (151) 
3.3634000000000017

>  <General_Cluster>  (151) 
4

>  <Biological_Cluster>  (151) 
2

>  <Physicochemical_Cluster>  (151) 
3

>  <Structural_Cluster>  (151) 
1

$$$$
FULL_S9
     RDKit          3D

 56 59  0  0  0  0  0  0  0  0999 V2000
  111.4143   65.4381   33.1630 C   0  0  0  0  0  0  0  0  0  0  0  0
  110.9140   66.7134   32.9097 C   0  0  0  0  0  0  0  0  0  0  0  0
  111.6328   65.0018   34.4746 C   0  0  0  0  0  0  0  0  0  0  0  0
  108.2760   66.6300   41.1946 C   0  0  0  0  0  0  0  0  0  0  0  0
  110.0425   67.8193   42.3357 C   0  0  0  0  0  0  0  0  0  0  0  0
  110.6164   67.5916   33.9555 C   0  0  0  0  0  0  0  0  0  0  0  0
  107.3413   67.5336   41.6999 C   0  0  0  0  0  0  0  0  0  0  0  0
  109.1078   68.7230   42.8409 C   0  0  0  0  0  0  0  0  0  0  0  0
  111.3414   65.8689   35.5467 C   0  0  0  0  0  0  0  0  0  0  0  0
  109.6267   66.7728   41.5125 C   0  0  0  0  0  0  0  0  0  0  0  0
  111.4345   65.7692   36.9615 C   0  0  0  0  0  0  0  0  0  0  0  0
  110.8389   67.1438   35.2627 C   0  0  0  0  0  0  0  0  0  0  0  0
  107.7572   68.5801   42.5230 C   0  0  0  0  0  0  0  0  0  0  0  0
  110.9904   66.9608   37.4944 C   0  0  0  0  0  0  0  0  0  0  0  0
  110.6125   65.8202   40.9797 C   0  0  0  0  0  0  0  0  0  0  0  0
  112.1669   72.7568   34.9143 C   0  0  0  0  0  0  0  0  0  0  0  0
  111.8881   64.6534   37.8351 C   0  0  0  0  0  0  0  0  0  0  0  0
  110.9153   67.3160   38.9355 C   0  0  0  0  0  0  0  0  0  0  0  0
  112.2529   65.1958   39.2275 C   0  0  0  0  0  0  0  0  0  0  0  0
  111.3541   72.9804   32.7037 C   0  0  0  0  0  0  0  0  0  0  0  0
  111.7070   72.7100   36.3549 C   0  0  0  0  0  0  0  0  0  0  0  0
  110.6475   71.6376   36.6116 C   0  0  0  0  0  0  0  0  0  0  0  0
  111.1793   70.2213   36.3568 C   0  0  0  0  0  0  0  0  0  0  0  0
  110.1285   69.1345   36.6124 C   0  0  0  0  0  0  0  0  0  0  0  0
  110.6362   67.7865   36.4661 N   0  0  0  0  0  0  0  0  0  0  0  0
  111.2132   66.1093   39.7487 N   0  0  0  0  0  0  0  0  0  0  0  0
  110.8420   64.8288   41.6712 O   0  0  0  0  0  0  0  0  0  0  0  0
  113.3233   72.6219   34.5385 O   0  0  0  0  0  0  0  0  0  0  0  0
  106.8453   69.4619   43.0163 O   0  0  0  0  0  0  0  0  0  0  0  0
  111.0801   72.9439   34.1079 O   0  0  0  0  0  0  0  0  0  0  0  0
  111.6403   64.7661   32.3220 H   0  0  0  0  0  0  0  0  0  0  0  0
  110.7506   67.0342   31.8703 H   0  0  0  0  0  0  0  0  0  0  0  0
  112.0276   63.9932   34.6666 H   0  0  0  0  0  0  0  0  0  0  0  0
  107.9480   65.8048   40.5454 H   0  0  0  0  0  0  0  0  0  0  0  0
  111.1076   67.9319   42.5865 H   0  0  0  0  0  0  0  0  0  0  0  0
  110.2213   68.5990   33.7582 H   0  0  0  0  0  0  0  0  0  0  0  0
  106.2762   67.4209   41.4493 H   0  0  0  0  0  0  0  0  0  0  0  0
  109.4358   69.5483   43.4900 H   0  0  0  0  0  0  0  0  0  0  0  0
  111.0797   63.9137   37.9318 H   0  0  0  0  0  0  0  0  0  0  0  0
  112.7736   64.1789   37.3872 H   0  0  0  0  0  0  0  0  0  0  0  0
  111.6508   68.1025   39.1600 H   0  0  0  0  0  0  0  0  0  0  0  0
  109.9069   67.6848   39.1746 H   0  0  0  0  0  0  0  0  0  0  0  0
  112.3645   64.3497   39.9216 H   0  0  0  0  0  0  0  0  0  0  0  0
  113.1928   65.7606   39.1399 H   0  0  0  0  0  0  0  0  0  0  0  0
  112.4330   73.1241   32.5443 H   0  0  0  0  0  0  0  0  0  0  0  0
  111.0386   72.0323   32.2438 H   0  0  0  0  0  0  0  0  0  0  0  0
  110.8014   73.8128   32.2438 H   0  0  0  0  0  0  0  0  0  0  0  0
  112.5779   72.5018   36.9939 H   0  0  0  0  0  0  0  0  0  0  0  0
  111.2506   73.6839   36.5854 H   0  0  0  0  0  0  0  0  0  0  0  0
  110.3185   71.7089   37.6588 H   0  0  0  0  0  0  0  0  0  0  0  0
  109.8141   71.8145   35.9158 H   0  0  0  0  0  0  0  0  0  0  0  0
  111.5074   70.1528   35.3091 H   0  0  0  0  0  0  0  0  0  0  0  0
  112.0094   70.0493   37.0578 H   0  0  0  0  0  0  0  0  0  0  0  0
  109.7490   69.2530   37.6381 H   0  0  0  0  0  0  0  0  0  0  0  0
  109.3413   69.2649   35.8553 H   0  0  0  0  0  0  0  0  0  0  0  0
  107.1407   70.2046   43.6005 H   0  0  0  0  0  0  0  0  0  0  0  0
  1  2  2  0
  1  3  1  0
  2  6  1  0
  3  9  2  0
  4  7  2  0
  4 10  1  0
  5  8  1  0
  5 10  2  0
  6 12  2  0
  7 13  1  0
  8 13  2  0
  9 11  1  0
  9 12  1  0
 10 15  1  0
 11 14  2  0
 11 17  1  0
 12 25  1  0
 13 29  1  0
 14 18  1  0
 14 25  1  0
 15 26  1  0
 15 27  2  0
 16 21  1  0
 16 28  2  0
 16 30  1  0
 17 19  1  0
 18 26  1  0
 19 26  1  0
 20 30  1  0
 21 22  1  0
 22 23  1  0
 23 24  1  0
 24 25  1  0
  1 31  1  0
  2 32  1  0
  3 33  1  0
  4 34  1  0
  5 35  1  0
  6 36  1  0
  7 37  1  0
  8 38  1  0
 17 39  1  0
 17 40  1  0
 18 41  1  0
 18 42  1  0
 19 43  1  0
 19 44  1  0
 20 45  1  0
 20 46  1  0
 20 47  1  0
 21 48  1  0
 21 49  1  0
 22 50  1  0
 22 51  1  0
 23 52  1  0
 23 53  1  0
 24 54  1  0
 24 55  1  0
 29 56  1  0
M  END
>  <Name>  (152) 
FULL_S9

>  <Comment>  (152) 
 Schrodinger Suite 2021-4.

>  <s_m_entry_id>  (152) 
1386

>  <class_value>  (152) 
0

>  <s_m_Source_Path>  (152) 
C:\Users\vinicius\Desktop

>  <s_m_Source_File>  (152) 
Ligands_Saureus_o.sdf

>  <i_m_Source_File_Index>  (152) 
228

>  <r_lp_tautomer_probability>  (152) 
0.999999999997365

>  <r_epik_Ionization_Penalty>  (152) 
0.0145

>  <r_epik_State_Penalty>  (152) 
0.0114

>  <i_epik_Tot_Q>  (152) 
0

>  <i_f3d_flags>  (152) 
0

>  <s_m_job_name>  (152) 
Saureus_o

>  <FRED Chemgauss4 score>  (152) 
-11.198246

>  <Set>  (152) 
training

>  <HBA count>  (152) 
5

>  <HBD count>  (152) 
1

>  <ExactMolWt>  (152) 
406.1892573120007

>  <NumRotatableBounds>  (152) 
8

>  <FractionCsp3>  (152) 
0.3333333333333333

>  <TPSA>  (152) 
71.77000000000001

>  <LogP_WildmanCrippen>  (152) 
3.888700000000003

>  <General_Cluster>  (152) 
3

>  <Biological_Cluster>  (152) 
2

>  <Physicochemical_Cluster>  (152) 
1

>  <Structural_Cluster>  (152) 
4

$$$$
CHEMBL4209393
     RDKit          3D

 43 45  0  0  1  0  0  0  0  0999 V2000
  111.2675   63.9876   39.9172 C   0  0  0  0  0  0  0  0  0  0  0  0
  112.1005   64.9927   40.4084 C   0  0  0  0  0  0  0  0  0  0  0  0
  111.2235   70.3139   31.9915 C   0  0  0  0  0  0  0  0  0  0  0  0
  110.8605   69.8495   34.3346 C   0  0  0  0  0  0  0  0  0  0  0  0
  110.5888   64.1710   38.7124 C   0  0  0  0  0  0  0  0  0  0  0  0
  111.6221   71.6119   32.3105 C   0  0  0  0  0  0  0  0  0  0  0  0
  111.2592   71.1476   34.6536 C   0  0  0  0  0  0  0  0  0  0  0  0
  112.2547   66.1814   39.6950 C   0  0  0  0  0  0  0  0  0  0  0  0
  110.8426   69.4327   33.0036 C   0  0  0  0  0  0  0  0  0  0  0  0
  110.7430   65.3597   37.9990 C   0  0  0  0  0  0  0  0  0  0  0  0
  111.6400   72.0287   33.6415 C   0  0  0  0  0  0  0  0  0  0  0  0
  111.5759   66.3649   38.4903 C   0  0  0  0  0  0  0  0  0  0  0  0
  110.9176   65.7587   35.5420 C   0  0  0  0  0  0  0  0  0  0  0  0
  108.9607   67.7459   33.0930 C   0  0  0  0  0  0  0  0  0  0  0  0
  109.0909   67.1792   34.5009 C   0  0  0  0  0  0  0  0  0  0  0  0
  111.1806   66.8860   33.3419 C   0  0  0  0  0  0  0  0  0  0  0  0
  110.4092   68.0197   32.6566 C   0  0  2  0  0  0  0  0  0  0  0  0
  112.4080   74.1428   32.8690 C   0  0  0  0  0  0  0  0  0  0  0  0
  109.9941   65.5184   36.7092 C   0  0  0  0  0  0  0  0  0  0  0  0
  110.4091   66.5579   34.5334 N   0  0  0  0  0  0  0  0  0  0  0  0
  112.0420   65.2554   35.5223 O   0  0  0  0  0  0  0  0  0  0  0  0
  112.0303   73.2950   33.9526 O   0  0  0  0  0  0  0  0  0  0  0  0
  111.7917   67.8488   37.6355 Cl  0  0  0  0  0  0  0  0  0  0  0  0
  111.1458   63.0503   40.4799 H   0  0  0  0  0  0  0  0  0  0  0  0
  112.6359   64.8480   41.3584 H   0  0  0  0  0  0  0  0  0  0  0  0
  111.2095   69.9851   30.9419 H   0  0  0  0  0  0  0  0  0  0  0  0
  110.5602   69.1546   35.1327 H   0  0  0  0  0  0  0  0  0  0  0  0
  109.9320   63.3782   38.3249 H   0  0  0  0  0  0  0  0  0  0  0  0
  111.9223   72.3069   31.5124 H   0  0  0  0  0  0  0  0  0  0  0  0
  111.2733   71.4764   35.7032 H   0  0  0  0  0  0  0  0  0  0  0  0
  112.9116   66.9741   40.0824 H   0  0  0  0  0  0  0  0  0  0  0  0
  108.4832   67.0165   32.4222 H   0  0  0  0  0  0  0  0  0  0  0  0
  108.3347   68.6498   33.0607 H   0  0  0  0  0  0  0  0  0  0  0  0
  109.0228   67.9824   35.2494 H   0  0  0  0  0  0  0  0  0  0  0  0
  108.2893   66.4634   34.7355 H   0  0  0  0  0  0  0  0  0  0  0  0
  111.2521   66.0125   32.6772 H   0  0  0  0  0  0  0  0  0  0  0  0
  112.2100   67.1836   33.5903 H   0  0  0  0  0  0  0  0  0  0  0  0
  110.5830   68.0049   31.5705 H   0  0  0  0  0  0  0  0  0  0  0  0
  112.8256   75.0802   33.2652 H   0  0  0  0  0  0  0  0  0  0  0  0
  113.1652   73.6354   32.2532 H   0  0  0  0  0  0  0  0  0  0  0  0
  111.5244   74.3664   32.2532 H   0  0  0  0  0  0  0  0  0  0  0  0
  109.4151   64.6024   36.5204 H   0  0  0  0  0  0  0  0  0  0  0  0
  109.3358   66.3944   36.8057 H   0  0  0  0  0  0  0  0  0  0  0  0
  1  2  2  0
  1  5  1  0
  2  8  1  0
  3  6  2  0
  3  9  1  0
  4  7  1  0
  4  9  2  0
  5 10  2  0
  6 11  1  0
  7 11  2  0
  8 12  2  0
  9 17  1  0
 10 12  1  0
 10 19  1  0
 11 22  1  0
 12 23  1  0
 13 19  1  0
 13 20  1  0
 13 21  2  0
 14 15  1  0
 14 17  1  0
 15 20  1  0
 16 17  1  0
 16 20  1  0
 18 22  1  0
  1 24  1  0
  2 25  1  0
  3 26  1  0
  4 27  1  0
  5 28  1  0
  6 29  1  0
  7 30  1  0
  8 31  1  0
 14 32  1  0
 14 33  1  0
 15 34  1  0
 15 35  1  0
 16 36  1  0
 16 37  1  0
 17 38  1  6
 18 39  1  0
 18 40  1  0
 18 41  1  0
 19 42  1  0
 19 43  1  0
M  END
>  <Name>  (153) 
CHEMBL4209393

>  <Comment>  (153) 
 Schrodinger Suite 2021-4.

>  <s_m_entry_id>  (153) 
1481

>  <s_m_Source_Path>  (153) 
C:\Users\vinicius\Desktop

>  <s_m_Source_File>  (153) 
Ligands_Saureus_failomega.smi

>  <i_m_Source_File_Index>  (153) 
29

>  <r_lp_tautomer_probability>  (153) 
1

>  <r_epik_Ionization_Penalty>  (153) 
0

>  <r_epik_State_Penalty>  (153) 
0

>  <i_epik_Tot_Q>  (153) 
0

>  <i_f3d_flags>  (153) 
0

>  <s_m_job_name>  (153) 
Saureus_fail

>  <class_value>  (153) 
0

>  <FRED Chemgauss4 score>  (153) 
-13.543031

>  <Set>  (153) 
training

>  <HBA count>  (153) 
2

>  <HBD count>  (153) 
0

>  <ExactMolWt>  (153) 
329.11825656000053

>  <NumRotatableBounds>  (153) 
5

>  <FractionCsp3>  (153) 
0.3157894736842105

>  <TPSA>  (153) 
29.540000000000003

>  <LogP_WildmanCrippen>  (153) 
3.907200000000003

>  <General_Cluster>  (153) 
2

>  <Biological_Cluster>  (153) 
2

>  <Physicochemical_Cluster>  (153) 
3

>  <Structural_Cluster>  (153) 
3

$$$$
CHEMBL109511
     RDKit          3D

 52 55  0  0  0  0  0  0  0  0999 V2000
  106.7962   66.5253   42.5878 C   0  0  0  0  0  0  0  0  0  0  0  0
  107.3648   65.4706   43.2991 C   0  0  0  0  0  0  0  0  0  0  0  0
  107.4829   67.1261   41.5264 C   0  0  0  0  0  0  0  0  0  0  0  0
  111.1315   65.5543   34.8740 C   0  0  0  0  0  0  0  0  0  0  0  0
  108.6340   64.9834   42.9741 C   0  0  0  0  0  0  0  0  0  0  0  0
  110.9873   66.0262   33.5689 C   0  0  0  0  0  0  0  0  0  0  0  0
  109.7204   67.0121   40.1904 C   0  0  0  0  0  0  0  0  0  0  0  0
  110.4427   67.7009   35.7065 C   0  0  0  0  0  0  0  0  0  0  0  0
  108.7639   66.6519   41.1805 C   0  0  0  0  0  0  0  0  0  0  0  0
  110.8559   66.3925   35.9445 C   0  0  0  0  0  0  0  0  0  0  0  0
  110.3016   68.1925   34.3941 C   0  0  0  0  0  0  0  0  0  0  0  0
  109.3088   65.5936   41.9109 C   0  0  0  0  0  0  0  0  0  0  0  0
  110.5638   67.3431   33.2965 C   0  0  0  0  0  0  0  0  0  0  0  0
  110.8073   66.1813   40.3363 C   0  0  0  0  0  0  0  0  0  0  0  0
  110.7785   70.1228   31.9559 C   0  0  0  0  0  0  0  0  0  0  0  0
  110.9972   65.9065   37.3077 C   0  0  0  0  0  0  0  0  0  0  0  0
  109.8476   69.6231   34.2235 C   0  0  0  0  0  0  0  0  0  0  0  0
  109.9138   68.9745   31.4875 C   0  0  0  0  0  0  0  0  0  0  0  0
  111.4511   64.2972   41.8468 C   0  0  0  0  0  0  0  0  0  0  0  0
  111.5543   71.4140   33.9203 C   0  0  0  0  0  0  0  0  0  0  0  0
  112.7170   67.6782   37.7377 C   0  0  0  0  0  0  0  0  0  0  0  0
  112.0897   66.1308   39.5572 C   0  0  0  0  0  0  0  0  0  0  0  0
  110.5496   65.3291   41.3764 N   0  0  0  0  0  0  0  0  0  0  0  0
  110.4510   67.7193   31.9651 N   0  0  0  0  0  0  0  0  0  0  0  0
  110.7186   70.3813   33.3249 N   0  0  0  0  0  0  0  0  0  0  0  0
  111.9036   66.5505   38.1699 N   0  0  0  0  0  0  0  0  0  0  0  0
  111.4735   70.7462   31.1525 O   0  0  0  0  0  0  0  0  0  0  0  0
  110.2891   64.9458   37.6378 O   0  0  0  0  0  0  0  0  0  0  0  0
  105.7958   66.8901   42.8637 H   0  0  0  0  0  0  0  0  0  0  0  0
  106.8061   65.0142   44.1295 H   0  0  0  0  0  0  0  0  0  0  0  0
  107.0281   67.9583   40.9691 H   0  0  0  0  0  0  0  0  0  0  0  0
  111.4627   64.5208   35.0535 H   0  0  0  0  0  0  0  0  0  0  0  0
  109.0857   64.1509   43.5335 H   0  0  0  0  0  0  0  0  0  0  0  0
  111.2103   65.3519   32.7289 H   0  0  0  0  0  0  0  0  0  0  0  0
  109.6105   67.8113   39.4426 H   0  0  0  0  0  0  0  0  0  0  0  0
  110.2228   68.3617   36.5579 H   0  0  0  0  0  0  0  0  0  0  0  0
  108.8280   69.6233   33.8106 H   0  0  0  0  0  0  0  0  0  0  0  0
  109.8826   70.1061   35.2111 H   0  0  0  0  0  0  0  0  0  0  0  0
  108.8935   69.1051   31.8772 H   0  0  0  0  0  0  0  0  0  0  0  0
  109.8964   68.9629   30.3877 H   0  0  0  0  0  0  0  0  0  0  0  0
  111.4577   64.2896   42.9468 H   0  0  0  0  0  0  0  0  0  0  0  0
  111.1137   63.3183   41.4754 H   0  0  0  0  0  0  0  0  0  0  0  0
  112.4664   64.5001   41.4754 H   0  0  0  0  0  0  0  0  0  0  0  0
  111.4980   71.3444   35.0166 H   0  0  0  0  0  0  0  0  0  0  0  0
  112.5964   71.2740   33.5971 H   0  0  0  0  0  0  0  0  0  0  0  0
  111.2000   72.4040   33.5971 H   0  0  0  0  0  0  0  0  0  0  0  0
  113.1019   68.2118   38.6192 H   0  0  0  0  0  0  0  0  0  0  0  0
  113.5602   67.3119   37.1337 H   0  0  0  0  0  0  0  0  0  0  0  0
  112.1034   68.3628   37.1337 H   0  0  0  0  0  0  0  0  0  0  0  0
  112.8222   66.7980   40.0350 H   0  0  0  0  0  0  0  0  0  0  0  0
  112.4441   65.0895   39.5528 H   0  0  0  0  0  0  0  0  0  0  0  0
  110.7779   67.0470   31.2565 H   0  0  0  0  0  0  0  0  0  0  0  0
  1  2  2  0
  1  3  1  0
  2  5  1  0
  3  9  2  0
  4  6  2  0
  4 10  1  0
  5 12  2  0
  6 13  1  0
  7  9  1  0
  7 14  2  0
  8 10  2  0
  8 11  1  0
  9 12  1  0
 10 16  1  0
 11 13  2  0
 11 17  1  0
 12 23  1  0
 13 24  1  0
 14 22  1  0
 14 23  1  0
 15 18  1  0
 15 25  1  0
 15 27  2  0
 16 26  1  0
 16 28  2  0
 17 25  1  0
 18 24  1  0
 19 23  1  0
 20 25  1  0
 21 26  1  0
 22 26  1  0
  1 29  1  0
  2 30  1  0
  3 31  1  0
  4 32  1  0
  5 33  1  0
  6 34  1  0
  7 35  1  0
  8 36  1  0
 17 37  1  0
 17 38  1  0
 18 39  1  0
 18 40  1  0
 19 41  1  0
 19 42  1  0
 19 43  1  0
 20 44  1  0
 20 45  1  0
 20 46  1  0
 21 47  1  0
 21 48  1  0
 21 49  1  0
 22 50  1  0
 22 51  1  0
 24 52  1  0
M  END
>  <Name>  (154) 
CHEMBL109511

>  <Comment>  (154) 
 Schrodinger Suite 2021-4.

>  <s_m_entry_id>  (154) 
1276

>  <class_value>  (154) 
0

>  <s_m_Source_Path>  (154) 
C:\Users\vinicius\Desktop

>  <s_m_Source_File>  (154) 
Ligands_Saureus_o.sdf

>  <i_m_Source_File_Index>  (154) 
163

>  <r_lp_tautomer_probability>  (154) 
1

>  <r_epik_Ionization_Penalty>  (154) 
0

>  <r_epik_State_Penalty>  (154) 
0

>  <i_epik_Tot_Q>  (154) 
0

>  <i_f3d_flags>  (154) 
0

>  <s_m_job_name>  (154) 
Saureus_o

>  <FRED Chemgauss4 score>  (154) 
-13.387859

>  <Set>  (154) 
training

>  <HBA count>  (154) 
4

>  <HBD count>  (154) 
1

>  <ExactMolWt>  (154) 
376.1899260080007

>  <NumRotatableBounds>  (154) 
6

>  <FractionCsp3>  (154) 
0.2727272727272727

>  <TPSA>  (154) 
57.580000000000005

>  <LogP_WildmanCrippen>  (154) 
2.8344000000000005

>  <General_Cluster>  (154) 
3

>  <Biological_Cluster>  (154) 
2

>  <Physicochemical_Cluster>  (154) 
1

>  <Structural_Cluster>  (154) 
4

$$$$
CHEMBL567931
     RDKit          3D

 51 54  0  0  0  0  0  0  0  0999 V2000
  111.9664   72.5532   35.5463 C   0  0  0  0  0  0  0  0  0  0  0  0
  112.2128   71.9390   36.7768 C   0  0  0  0  0  0  0  0  0  0  0  0
  111.3861   71.8425   34.4867 C   0  0  0  0  0  0  0  0  0  0  0  0
  111.8898   70.5963   36.9946 C   0  0  0  0  0  0  0  0  0  0  0  0
  110.1517   66.3289   39.4068 C   0  0  0  0  0  0  0  0  0  0  0  0
  112.4105   66.2694   40.0683 C   0  0  0  0  0  0  0  0  0  0  0  0
  111.0530   70.4910   34.6837 C   0  0  0  0  0  0  0  0  0  0  0  0
  111.4862   66.1777   39.0577 C   0  0  0  0  0  0  0  0  0  0  0  0
  110.4725   69.4623   33.8957 C   0  0  0  0  0  0  0  0  0  0  0  0
  109.7459   66.5593   40.7386 C   0  0  0  0  0  0  0  0  0  0  0  0
  111.3141   69.9159   35.9232 C   0  0  0  0  0  0  0  0  0  0  0  0
  110.4188   68.3445   34.6957 C   0  0  0  0  0  0  0  0  0  0  0  0
  110.7630   66.5949   41.6963 C   0  0  0  0  0  0  0  0  0  0  0  0
  109.4888   66.7002   43.9061 C   0  0  0  0  0  0  0  0  0  0  0  0
  111.8881   65.9499   37.6826 C   0  0  0  0  0  0  0  0  0  0  0  0
  111.0829   65.4868   36.6968 C   0  0  0  0  0  0  0  0  0  0  0  0
  111.6252   65.2625   35.3242 C   0  0  0  0  0  0  0  0  0  0  0  0
  108.1377   66.4113   43.3172 C   0  0  0  0  0  0  0  0  0  0  0  0
  107.8354   67.3204   42.1523 C   0  0  0  0  0  0  0  0  0  0  0  0
  110.0161   69.5679   32.4966 C   0  0  0  0  0  0  0  0  0  0  0  0
  111.4790   65.8122   32.9257 C   0  0  0  0  0  0  0  0  0  0  0  0
  109.9251   66.9439   34.4751 C   0  0  0  0  0  0  0  0  0  0  0  0
  112.0802   66.4755   41.3587 N   0  0  0  0  0  0  0  0  0  0  0  0
  108.4002   66.7747   40.9465 N   0  0  0  0  0  0  0  0  0  0  0  0
  110.5895   66.7369   43.0919 N   0  0  0  0  0  0  0  0  0  0  0  0
  111.0252   65.9977   34.2980 N   0  0  0  0  0  0  0  0  0  0  0  0
  109.6008   66.8451   45.1283 O   0  0  0  0  0  0  0  0  0  0  0  0
  112.5329   64.4481   35.1505 O   0  0  0  0  0  0  0  0  0  0  0  0
  110.9271   68.6092   35.9275 O   0  0  0  0  0  0  0  0  0  0  0  0
  112.2321   73.6115   35.4069 H   0  0  0  0  0  0  0  0  0  0  0  0
  112.6695   72.5229   37.5895 H   0  0  0  0  0  0  0  0  0  0  0  0
  111.1952   72.3324   33.5205 H   0  0  0  0  0  0  0  0  0  0  0  0
  112.0798   70.1035   37.9595 H   0  0  0  0  0  0  0  0  0  0  0  0
  109.3854   66.2672   38.6200 H   0  0  0  0  0  0  0  0  0  0  0  0
  113.4755   66.1696   39.8119 H   0  0  0  0  0  0  0  0  0  0  0  0
  112.9327   66.1715   37.4187 H   0  0  0  0  0  0  0  0  0  0  0  0
  110.0245   65.2750   36.9086 H   0  0  0  0  0  0  0  0  0  0  0  0
  108.1147   65.3674   42.9711 H   0  0  0  0  0  0  0  0  0  0  0  0
  107.3789   66.5835   44.0947 H   0  0  0  0  0  0  0  0  0  0  0  0
  106.7456   67.4133   42.0352 H   0  0  0  0  0  0  0  0  0  0  0  0
  108.2744   68.3110   42.3422 H   0  0  0  0  0  0  0  0  0  0  0  0
  108.9446   69.8158   32.4782 H   0  0  0  0  0  0  0  0  0  0  0  0
  110.5842   70.3583   31.9843 H   0  0  0  0  0  0  0  0  0  0  0  0
  110.1793   68.6083   31.9843 H   0  0  0  0  0  0  0  0  0  0  0  0
  112.4972   65.3960   32.9293 H   0  0  0  0  0  0  0  0  0  0  0  0
  110.8013   65.1189   32.4060 H   0  0  0  0  0  0  0  0  0  0  0  0
  111.4810   66.7817   32.4060 H   0  0  0  0  0  0  0  0  0  0  0  0
  109.3286   66.6361   35.3465 H   0  0  0  0  0  0  0  0  0  0  0  0
  109.3198   66.9374   33.5566 H   0  0  0  0  0  0  0  0  0  0  0  0
  107.7529   66.5274   40.1844 H   0  0  0  0  0  0  0  0  0  0  0  0
  111.4702   66.9015   43.6000 H   0  0  0  0  0  0  0  0  0  0  0  0
  1  2  2  0
  1  3  1  0
  2  4  1  0
  3  7  2  0
  4 11  2  0
  5  8  2  0
  5 10  1  0
  6  8  1  0
  6 23  2  0
  7  9  1  0
  7 11  1  0
  8 15  1  0
  9 12  2  0
  9 20  1  0
 10 13  2  0
 10 24  1  0
 11 29  1  0
 12 22  1  0
 12 29  1  0
 13 23  1  0
 13 25  1  0
 14 18  1  0
 14 25  1  0
 14 27  2  0
 15 16  2  0
 16 17  1  0
 17 26  1  0
 17 28  2  0
 18 19  1  0
 19 24  1  0
 21 26  1  0
 22 26  1  0
  1 30  1  0
  2 31  1  0
  3 32  1  0
  4 33  1  0
  5 34  1  0
  6 35  1  0
 15 36  1  0
 16 37  1  0
 18 38  1  0
 18 39  1  0
 19 40  1  0
 19 41  1  0
 20 42  1  0
 20 43  1  0
 20 44  1  0
 21 45  1  0
 21 46  1  0
 21 47  1  0
 22 48  1  0
 22 49  1  0
 24 50  1  0
 25 51  1  0
M  END
>  <Name>  (155) 
CHEMBL567931

>  <Comment>  (155) 
 Schrodinger Suite 2021-4.

>  <s_m_entry_id>  (155) 
1359

>  <class_value>  (155) 
1

>  <s_m_Source_Path>  (155) 
C:\Users\vinicius\Desktop

>  <s_m_Source_File>  (155) 
Ligands_Saureus_o.sdf

>  <i_m_Source_File_Index>  (155) 
211

>  <r_lp_tautomer_probability>  (155) 
1

>  <r_epik_Ionization_Penalty>  (155) 
0.0015

>  <r_epik_State_Penalty>  (155) 
0

>  <i_epik_Tot_Q>  (155) 
0

>  <i_f3d_flags>  (155) 
0

>  <s_m_job_name>  (155) 
Saureus_o

>  <FRED Chemgauss4 score>  (155) 
-16.903328

>  <Set>  (155) 
training

>  <HBA count>  (155) 
5

>  <HBD count>  (155) 
2

>  <ExactMolWt>  (155) 
390.16919056400064

>  <NumRotatableBounds>  (155) 
6

>  <FractionCsp3>  (155) 
0.22727272727272727

>  <TPSA>  (155) 
87.47000000000001

>  <LogP_WildmanCrippen>  (155) 
3.562120000000002

>  <General_Cluster>  (155) 
1

>  <Biological_Cluster>  (155) 
1

>  <Physicochemical_Cluster>  (155) 
1

>  <Structural_Cluster>  (155) 
2

$$$$
CHEMBL567313
     RDKit          3D

 52 55  0  0  0  0  0  0  0  0999 V2000
  111.6685   73.0136   34.1868 C   0  0  0  0  0  0  0  0  0  0  0  0
  112.0766   72.8440   35.5022 C   0  0  0  0  0  0  0  0  0  0  0  0
  111.0536   71.9646   33.4981 C   0  0  0  0  0  0  0  0  0  0  0  0
  111.8801   71.6266   36.1568 C   0  0  0  0  0  0  0  0  0  0  0  0
  109.9496   65.8739   39.5750 C   0  0  0  0  0  0  0  0  0  0  0  0
  112.2182   66.2043   40.1381 C   0  0  0  0  0  0  0  0  0  0  0  0
  110.8401   70.7177   34.1340 C   0  0  0  0  0  0  0  0  0  0  0  0
  111.2786   65.9034   39.1785 C   0  0  0  0  0  0  0  0  0  0  0  0
  110.2395   69.5100   33.6429 C   0  0  0  0  0  0  0  0  0  0  0  0
  109.5816   66.1336   40.9063 C   0  0  0  0  0  0  0  0  0  0  0  0
  111.2599   70.5712   35.4597 C   0  0  0  0  0  0  0  0  0  0  0  0
  110.2179   68.5040   34.5794 C   0  0  0  0  0  0  0  0  0  0  0  0
  110.6168   66.3775   41.8281 C   0  0  0  0  0  0  0  0  0  0  0  0
  111.6619   65.6508   37.8022 C   0  0  0  0  0  0  0  0  0  0  0  0
  110.8408   65.7470   36.7294 C   0  0  0  0  0  0  0  0  0  0  0  0
  111.3477   65.4283   35.3620 C   0  0  0  0  0  0  0  0  0  0  0  0
  107.9586   66.4985   43.6458 C   0  0  0  0  0  0  0  0  0  0  0  0
  107.7336   67.0739   42.2546 C   0  0  0  0  0  0  0  0  0  0  0  0
  109.3041   65.8148   43.8462 C   0  0  0  0  0  0  0  0  0  0  0  0
  109.6977   69.3610   32.2675 C   0  0  0  0  0  0  0  0  0  0  0  0
  111.1675   65.8439   32.9390 C   0  0  0  0  0  0  0  0  0  0  0  0
  109.6796   67.1085   34.4497 C   0  0  0  0  0  0  0  0  0  0  0  0
  111.9189   66.4417   41.4329 N   0  0  0  0  0  0  0  0  0  0  0  0
  108.2258   66.1986   41.2103 N   0  0  0  0  0  0  0  0  0  0  0  0
  110.3862   66.5262   43.1937 N   0  0  0  0  0  0  0  0  0  0  0  0
  110.7479   66.1212   34.3066 N   0  0  0  0  0  0  0  0  0  0  0  0
  112.2278   64.5784   35.2184 O   0  0  0  0  0  0  0  0  0  0  0  0
  110.9148   68.9908   36.0568 S   0  0  0  0  0  0  0  0  0  0  0  0
  111.8298   73.9784   33.6838 H   0  0  0  0  0  0  0  0  0  0  0  0
  112.5596   73.6768   36.0343 H   0  0  0  0  0  0  0  0  0  0  0  0
  110.7335   72.1085   32.4556 H   0  0  0  0  0  0  0  0  0  0  0  0
  112.2042   71.4937   37.1995 H   0  0  0  0  0  0  0  0  0  0  0  0
  109.1699   65.6431   38.8342 H   0  0  0  0  0  0  0  0  0  0  0  0
  113.2737   66.2542   39.8324 H   0  0  0  0  0  0  0  0  0  0  0  0
  112.7052   65.3570   37.6146 H   0  0  0  0  0  0  0  0  0  0  0  0
  109.7956   66.0614   36.8664 H   0  0  0  0  0  0  0  0  0  0  0  0
  107.8814   67.3208   44.3724 H   0  0  0  0  0  0  0  0  0  0  0  0
  107.1933   65.7209   43.7858 H   0  0  0  0  0  0  0  0  0  0  0  0
  106.6547   67.2292   42.1065 H   0  0  0  0  0  0  0  0  0  0  0  0
  108.2891   68.0211   42.1888 H   0  0  0  0  0  0  0  0  0  0  0  0
  109.5160   65.7604   44.9242 H   0  0  0  0  0  0  0  0  0  0  0  0
  109.2420   64.8124   43.3975 H   0  0  0  0  0  0  0  0  0  0  0  0
  108.6383   69.0697   32.3203 H   0  0  0  0  0  0  0  0  0  0  0  0
  109.7887   70.3175   31.7320 H   0  0  0  0  0  0  0  0  0  0  0  0
  110.2650   68.5855   31.7320 H   0  0  0  0  0  0  0  0  0  0  0  0
  112.0851   65.2375   32.9528 H   0  0  0  0  0  0  0  0  0  0  0  0
  110.3719   65.2931   32.4159 H   0  0  0  0  0  0  0  0  0  0  0  0
  111.3623   66.7918   32.4159 H   0  0  0  0  0  0  0  0  0  0  0  0
  109.0928   66.8691   35.3488 H   0  0  0  0  0  0  0  0  0  0  0  0
  109.0554   67.0676   33.5449 H   0  0  0  0  0  0  0  0  0  0  0  0
  107.5604   65.6145   40.6840 H   0  0  0  0  0  0  0  0  0  0  0  0
  110.9918   67.1492   43.7469 H   0  0  0  0  0  0  0  0  0  0  0  0
  1  2  2  0
  1  3  1  0
  2  4  1  0
  3  7  2  0
  4 11  2  0
  5  8  2  0
  5 10  1  0
  6  8  1  0
  6 23  2  0
  7  9  1  0
  7 11  1  0
  8 14  1  0
  9 12  2  0
  9 20  1  0
 10 13  2  0
 10 24  1  0
 11 28  1  0
 12 22  1  0
 12 28  1  0
 13 23  1  0
 13 25  1  0
 14 15  2  0
 15 16  1  0
 16 26  1  0
 16 27  2  0
 17 18  1  0
 17 19  1  0
 18 24  1  0
 19 25  1  0
 21 26  1  0
 22 26  1  0
  1 29  1  0
  2 30  1  0
  3 31  1  0
  4 32  1  0
  5 33  1  0
  6 34  1  0
 14 35  1  0
 15 36  1  0
 17 37  1  0
 17 38  1  0
 18 39  1  0
 18 40  1  0
 19 41  1  0
 19 42  1  0
 20 43  1  0
 20 44  1  0
 20 45  1  0
 21 46  1  0
 21 47  1  0
 21 48  1  0
 22 49  1  0
 22 50  1  0
 24 51  1  0
 25 52  1  0
M  END
>  <Name>  (156) 
CHEMBL567313

>  <Comment>  (156) 
 Schrodinger Suite 2021-4.

>  <s_m_entry_id>  (156) 
1354

>  <class_value>  (156) 
1

>  <s_m_Source_Path>  (156) 
C:\Users\vinicius\Desktop

>  <s_m_Source_File>  (156) 
Ligands_Saureus_o.sdf

>  <i_m_Source_File_Index>  (156) 
207

>  <r_epik_Ionization_Penalty>  (156) 
0.4433

>  <r_epik_State_Penalty>  (156) 
0.4435

>  <i_epik_Tot_Q>  (156) 
0

>  <i_f3d_flags>  (156) 
0

>  <s_m_job_name>  (156) 
Saureus_o

>  <FRED Chemgauss4 score>  (156) 
-17.641294

>  <Set>  (156) 
training

>  <HBA count>  (156) 
5

>  <HBD count>  (156) 
2

>  <ExactMolWt>  (156) 
392.1670823880007

>  <NumRotatableBounds>  (156) 
6

>  <FractionCsp3>  (156) 
0.2727272727272727

>  <TPSA>  (156) 
57.260000000000005

>  <LogP_WildmanCrippen>  (156) 
4.504020000000003

>  <General_Cluster>  (156) 
1

>  <Biological_Cluster>  (156) 
1

>  <Physicochemical_Cluster>  (156) 
1

>  <Structural_Cluster>  (156) 
2

$$$$
CHEMBL565827
     RDKit          3D

 70 73  0  0  0  0  0  0  0  0999 V2000
  109.3659   66.6665   34.2226 C   0  0  0  0  0  0  0  0  0  0  0  0
  109.9538   66.6133   35.4864 C   0  0  0  0  0  0  0  0  0  0  0  0
  109.5806   67.7720   33.3995 C   0  0  0  0  0  0  0  0  0  0  0  0
  109.7203   64.0690   42.4625 C   0  0  0  0  0  0  0  0  0  0  0  0
  108.7450   65.8805   41.2762 C   0  0  0  0  0  0  0  0  0  0  0  0
  109.7800   64.9717   41.4081 C   0  0  0  0  0  0  0  0  0  0  0  0
  108.6298   64.0887   43.3330 C   0  0  0  0  0  0  0  0  0  0  0  0
  110.7564   67.6656   35.9271 C   0  0  0  0  0  0  0  0  0  0  0  0
  110.3832   68.8243   33.8401 C   0  0  0  0  0  0  0  0  0  0  0  0
  110.9711   68.7711   35.1039 C   0  0  0  0  0  0  0  0  0  0  0  0
  107.6354   65.0376   43.1143 C   0  0  0  0  0  0  0  0  0  0  0  0
  106.2897   64.1678   44.9966 C   0  0  0  0  0  0  0  0  0  0  0  0
  110.8851   64.9529   40.4672 C   0  0  0  0  0  0  0  0  0  0  0  0
  110.8672   65.4956   39.2269 C   0  0  0  0  0  0  0  0  0  0  0  0
  112.0611   65.3815   38.3381 C   0  0  0  0  0  0  0  0  0  0  0  0
  108.5615   63.1920   44.5331 C   0  0  0  0  0  0  0  0  0  0  0  0
  106.4686   61.9152   43.8730 C   0  0  0  0  0  0  0  0  0  0  0  0
  107.1404   62.1546   46.3162 C   0  0  0  0  0  0  0  0  0  0  0  0
  105.1624   61.2818   44.3304 C   0  0  0  0  0  0  0  0  0  0  0  0
  105.8467   61.4576   46.7197 C   0  0  0  0  0  0  0  0  0  0  0  0
  107.1039   62.8546   44.9331 C   0  0  0  0  0  0  0  0  0  0  0  0
  111.5227   73.0688   37.3658 C   0  0  0  0  0  0  0  0  0  0  0  0
  113.3800   66.3725   36.5066 C   0  0  0  0  0  0  0  0  0  0  0  0
  109.9470   69.8724   31.7504 C   0  0  0  0  0  0  0  0  0  0  0  0
  111.3804   67.5900   37.2905 C   0  0  0  0  0  0  0  0  0  0  0  0
  112.1409   71.9128   36.6003 C   0  0  0  0  0  0  0  0  0  0  0  0
  111.1064   70.8605   36.2317 C   0  0  0  0  0  0  0  0  0  0  0  0
  107.6804   65.9408   42.1068 N   0  0  0  0  0  0  0  0  0  0  0  0
  106.5452   65.0919   43.9999 N   0  0  0  0  0  0  0  0  0  0  0  0
  112.2531   66.4256   37.4289 N   0  0  0  0  0  0  0  0  0  0  0  0
  105.3912   60.5690   45.6170 N   0  0  0  0  0  4  0  0  0  0  0  0
  105.4033   64.3585   45.8304 O   0  0  0  0  0  0  0  0  0  0  0  0
  112.7927   64.3938   38.4200 O   0  0  0  0  0  0  0  0  0  0  0  0
  110.5845   69.8979   33.0260 O   0  0  0  0  0  0  0  0  0  0  0  0
  111.7551   69.8022   35.5307 O   0  0  0  0  0  0  0  0  0  0  0  0
  108.7330   65.8367   33.8751 H   0  0  0  0  0  0  0  0  0  0  0  0
  109.7845   65.7415   36.1355 H   0  0  0  0  0  0  0  0  0  0  0  0
  109.1169   67.8139   32.4029 H   0  0  0  0  0  0  0  0  0  0  0  0
  110.5309   63.3403   42.6108 H   0  0  0  0  0  0  0  0  0  0  0  0
  108.7915   66.5983   40.4439 H   0  0  0  0  0  0  0  0  0  0  0  0
  111.8131   64.4571   40.7881 H   0  0  0  0  0  0  0  0  0  0  0  0
  109.9691   66.0228   38.8727 H   0  0  0  0  0  0  0  0  0  0  0  0
  109.0916   62.2554   44.3054 H   0  0  0  0  0  0  0  0  0  0  0  0
  109.0274   63.7228   45.3764 H   0  0  0  0  0  0  0  0  0  0  0  0
  107.1846   61.1117   43.6456 H   0  0  0  0  0  0  0  0  0  0  0  0
  106.2391   62.5304   42.9905 H   0  0  0  0  0  0  0  0  0  0  0  0
  107.3702   62.9147   47.0774 H   0  0  0  0  0  0  0  0  0  0  0  0
  107.9039   61.3663   46.2417 H   0  0  0  0  0  0  0  0  0  0  0  0
  104.4033   62.0650   44.4731 H   0  0  0  0  0  0  0  0  0  0  0  0
  104.8095   60.5698   43.5699 H   0  0  0  0  0  0  0  0  0  0  0  0
  106.0217   60.8572   47.6246 H   0  0  0  0  0  0  0  0  0  0  0  0
  105.0733   62.2133   46.9218 H   0  0  0  0  0  0  0  0  0  0  0  0
  111.6200   72.8868   38.4463 H   0  0  0  0  0  0  0  0  0  0  0  0
  112.0421   74.0021   37.1029 H   0  0  0  0  0  0  0  0  0  0  0  0
  110.4581   73.1551   37.1029 H   0  0  0  0  0  0  0  0  0  0  0  0
  114.3192   66.3282   37.0774 H   0  0  0  0  0  0  0  0  0  0  0  0
  113.2934   65.4774   35.8731 H   0  0  0  0  0  0  0  0  0  0  0  0
  113.3780   67.2717   35.8731 H   0  0  0  0  0  0  0  0  0  0  0  0
  108.8563   69.8288   31.8864 H   0  0  0  0  0  0  0  0  0  0  0  0
  110.2106   70.7818   31.1905 H   0  0  0  0  0  0  0  0  0  0  0  0
  110.2824   68.9870   31.1905 H   0  0  0  0  0  0  0  0  0  0  0  0
  111.9735   68.5007   37.4607 H   0  0  0  0  0  0  0  0  0  0  0  0
  110.5713   67.4983   38.0301 H   0  0  0  0  0  0  0  0  0  0  0  0
  112.5981   72.3007   35.6781 H   0  0  0  0  0  0  0  0  0  0  0  0
  112.8943   71.4392   37.2469 H   0  0  0  0  0  0  0  0  0  0  0  0
  110.6388   70.4660   37.1459 H   0  0  0  0  0  0  0  0  0  0  0  0
  110.3292   71.3083   35.5951 H   0  0  0  0  0  0  0  0  0  0  0  0
  105.8878   65.8784   43.8990 H   0  0  0  0  0  0  0  0  0  0  0  0
  104.5082   60.1224   45.9029 H   0  0  0  0  0  0  0  0  0  0  0  0
  106.1426   59.8840   45.4523 H   0  0  0  0  0  0  0  0  0  0  0  0
  1  2  2  0
  1  3  1  0
  2  8  1  0
  3  9  2  0
  4  6  2  0
  4  7  1  0
  5  6  1  0
  5 28  2  0
  6 13  1  0
  7 11  2  0
  7 16  1  0
  8 10  2  0
  8 25  1  0
  9 10  1  0
  9 34  1  0
 10 35  1  0
 11 28  1  0
 11 29  1  0
 12 21  1  0
 12 29  1  0
 12 32  2  0
 13 14  2  0
 14 15  1  0
 15 30  1  0
 15 33  2  0
 16 21  1  0
 17 19  1  0
 17 21  1  0
 18 20  1  0
 18 21  1  0
 19 31  1  0
 20 31  1  0
 22 26  1  0
 23 30  1  0
 24 34  1  0
 25 30  1  0
 26 27  1  0
 27 35  1  0
  1 36  1  0
  2 37  1  0
  3 38  1  0
  4 39  1  0
  5 40  1  0
 13 41  1  0
 14 42  1  0
 16 43  1  0
 16 44  1  0
 17 45  1  0
 17 46  1  0
 18 47  1  0
 18 48  1  0
 19 49  1  0
 19 50  1  0
 20 51  1  0
 20 52  1  0
 22 53  1  0
 22 54  1  0
 22 55  1  0
 23 56  1  0
 23 57  1  0
 23 58  1  0
 24 59  1  0
 24 60  1  0
 24 61  1  0
 25 62  1  0
 25 63  1  0
 26 64  1  0
 26 65  1  0
 27 66  1  0
 27 67  1  0
 29 68  1  0
 31 69  1  0
 31 70  1  0
M  CHG  1  31   1
M  END
>  <Name>  (157) 
CHEMBL565827

>  <Comment>  (157) 
 Schrodinger Suite 2021-4.

>  <s_m_entry_id>  (157) 
1112

>  <class_value>  (157) 
1

>  <s_m_Source_Path>  (157) 
C:\Users\vinicius\Desktop

>  <s_m_Source_File>  (157) 
Ligands_Saureus_o.sdf

>  <i_m_Source_File_Index>  (157) 
32

>  <r_lp_tautomer_probability>  (157) 
1

>  <r_epik_Ionization_Penalty>  (157) 
0.0015

>  <r_epik_State_Penalty>  (157) 
0

>  <i_epik_Tot_Q>  (157) 
1

>  <i_f3d_flags>  (157) 
0

>  <s_m_job_name>  (157) 
Saureus_o

>  <FRED Chemgauss4 score>  (157) 
-12.553535

>  <Set>  (157) 
training

>  <HBA count>  (157) 
5

>  <HBD count>  (157) 
2

>  <ExactMolWt>  (157) 
479.265282020091

>  <NumRotatableBounds>  (157) 
11

>  <FractionCsp3>  (157) 
0.4444444444444444

>  <TPSA>  (157) 
97.37

>  <LogP_WildmanCrippen>  (157) 
2.389

>  <General_Cluster>  (157) 
1

>  <Biological_Cluster>  (157) 
1

>  <Physicochemical_Cluster>  (157) 
4

>  <Structural_Cluster>  (157) 
2

$$$$
CHEMBL4211939
     RDKit          3D

 42 45  0  0  1  0  0  0  0  0999 V2000
  109.6467   68.1485   33.6590 C   0  0  0  0  0  0  0  0  0  0  0  0
  110.0165   69.3935   33.1502 C   0  0  0  0  0  0  0  0  0  0  0  0
  108.6747   66.1162   41.7460 C   0  0  0  0  0  0  0  0  0  0  0  0
  109.9231   67.8283   34.9883 C   0  0  0  0  0  0  0  0  0  0  0  0
  107.6069   65.8033   42.5907 C   0  0  0  0  0  0  0  0  0  0  0  0
  110.6628   70.3181   33.9705 C   0  0  0  0  0  0  0  0  0  0  0  0
  109.6438   63.9081   42.0826 C   0  0  0  0  0  0  0  0  0  0  0  0
  109.6872   65.1740   41.4933 C   0  0  0  0  0  0  0  0  0  0  0  0
  110.5694   68.7529   35.8085 C   0  0  0  0  0  0  0  0  0  0  0  0
  107.5877   64.5466   43.1598 C   0  0  0  0  0  0  0  0  0  0  0  0
  108.5787   63.6243   42.9125 C   0  0  0  0  0  0  0  0  0  0  0  0
  110.9393   69.9979   35.2997 C   0  0  0  0  0  0  0  0  0  0  0  0
  111.7091   67.1336   37.3271 C   0  0  0  0  0  0  0  0  0  0  0  0
  111.4518   64.3878   39.7576 C   0  0  0  0  0  0  0  0  0  0  0  0
  112.2254   65.1070   38.6641 C   0  0  0  0  0  0  0  0  0  0  0  0
  110.4818   66.5471   39.4726 C   0  0  0  0  0  0  0  0  0  0  0  0
  107.1350   62.7386   44.2590 C   0  0  0  0  0  0  0  0  0  0  0  0
  110.8345   65.5362   40.5756 C   0  0  1  0  0  0  0  0  0  0  0  0
  110.8502   68.3690   37.2309 C   0  0  0  0  0  0  0  0  0  0  0  0
  111.4752   66.3277   38.4268 N   0  0  0  0  0  0  0  0  0  0  0  0
  112.5573   66.8953   36.4658 O   0  0  0  0  0  0  0  0  0  0  0  0
  106.6333   64.0663   44.0027 O   0  0  0  0  0  0  0  0  0  0  0  0
  108.3690   62.4513   43.5698 O   0  0  0  0  0  0  0  0  0  0  0  0
  111.7402   71.1675   36.2843 Cl  0  0  0  0  0  0  0  0  0  0  0  0
  109.1372   67.4192   33.0121 H   0  0  0  0  0  0  0  0  0  0  0  0
  109.7984   69.6461   32.1020 H   0  0  0  0  0  0  0  0  0  0  0  0
  108.7238   67.1087   41.2743 H   0  0  0  0  0  0  0  0  0  0  0  0
  109.6313   66.8466   35.3897 H   0  0  0  0  0  0  0  0  0  0  0  0
  106.8096   66.5331   42.7949 H   0  0  0  0  0  0  0  0  0  0  0  0
  110.9545   71.2999   33.5692 H   0  0  0  0  0  0  0  0  0  0  0  0
  110.4310   63.1639   41.8917 H   0  0  0  0  0  0  0  0  0  0  0  0
  110.6686   63.7458   39.3280 H   0  0  0  0  0  0  0  0  0  0  0  0
  112.0845   63.7223   40.3632 H   0  0  0  0  0  0  0  0  0  0  0  0
  113.2473   65.3382   38.9992 H   0  0  0  0  0  0  0  0  0  0  0  0
  112.3273   64.4966   37.7547 H   0  0  0  0  0  0  0  0  0  0  0  0
  109.4681   66.3614   39.0879 H   0  0  0  0  0  0  0  0  0  0  0  0
  110.4937   67.5829   39.8427 H   0  0  0  0  0  0  0  0  0  0  0  0
  107.3065   62.6331   45.3404 H   0  0  0  0  0  0  0  0  0  0  0  0
  106.3816   62.0286   43.8871 H   0  0  0  0  0  0  0  0  0  0  0  0
  111.5285   65.9241   41.3358 H   0  0  0  0  0  0  0  0  0  0  0  0
  111.3703   69.2018   37.7268 H   0  0  0  0  0  0  0  0  0  0  0  0
  109.8886   68.1512   37.7186 H   0  0  0  0  0  0  0  0  0  0  0  0
  1  2  2  0
  1  4  1  0
  2  6  1  0
  3  5  2  0
  3  8  1  0
  4  9  2  0
  5 10  1  0
  6 12  2  0
  7  8  2  0
  7 11  1  0
  8 18  1  0
  9 12  1  0
  9 19  1  0
 10 11  2  0
 10 22  1  0
 11 23  1  0
 12 24  1  0
 13 19  1  0
 13 20  1  0
 13 21  2  0
 14 15  1  0
 14 18  1  0
 15 20  1  0
 16 18  1  0
 16 20  1  0
 17 22  1  0
 17 23  1  0
  1 25  1  0
  2 26  1  0
  3 27  1  0
  4 28  1  0
  5 29  1  0
  6 30  1  0
  7 31  1  0
 14 32  1  0
 14 33  1  0
 15 34  1  0
 15 35  1  0
 16 36  1  0
 16 37  1  0
 17 38  1  0
 17 39  1  0
 18 40  1  1
 19 41  1  0
 19 42  1  0
M  END
>  <Name>  (158) 
CHEMBL4211939

>  <Comment>  (158) 
 Schrodinger Suite 2021-4.

>  <s_m_entry_id>  (158) 
1451

>  <s_m_Source_Path>  (158) 
C:\Users\vinicius\Desktop

>  <s_m_Source_File>  (158) 
Ligands_Saureus_failomega.smi

>  <i_m_Source_File_Index>  (158) 
14

>  <r_lp_tautomer_probability>  (158) 
1

>  <r_epik_Ionization_Penalty>  (158) 
0

>  <r_epik_State_Penalty>  (158) 
0

>  <i_epik_Tot_Q>  (158) 
0

>  <i_f3d_flags>  (158) 
0

>  <s_m_job_name>  (158) 
Saureus_fail

>  <class_value>  (158) 
0

>  <FRED Chemgauss4 score>  (158) 
-12.812696

>  <Set>  (158) 
training

>  <HBA count>  (158) 
3

>  <HBD count>  (158) 
0

>  <ExactMolWt>  (158) 
343.09752111600045

>  <NumRotatableBounds>  (158) 
3

>  <FractionCsp3>  (158) 
0.3157894736842105

>  <TPSA>  (158) 
38.77

>  <LogP_WildmanCrippen>  (158) 
3.6273000000000026

>  <General_Cluster>  (158) 
2

>  <Biological_Cluster>  (158) 
2

>  <Physicochemical_Cluster>  (158) 
3

>  <Structural_Cluster>  (158) 
3

$$$$
CHEMBL109484
     RDKit          3D

 47 49  0  0  0  0  0  0  0  0999 V2000
  111.8345   72.2396   34.7974 C   0  0  0  0  0  0  0  0  0  0  0  0
  111.3488   71.7229   33.5978 C   0  0  0  0  0  0  0  0  0  0  0  0
  111.8489   71.4598   35.9595 C   0  0  0  0  0  0  0  0  0  0  0  0
  109.3437   66.2729   42.9375 C   0  0  0  0  0  0  0  0  0  0  0  0
  110.8634   70.4144   33.5207 C   0  0  0  0  0  0  0  0  0  0  0  0
  108.1429   65.6479   43.2603 C   0  0  0  0  0  0  0  0  0  0  0  0
  111.2317   69.0911   36.8612 C   0  0  0  0  0  0  0  0  0  0  0  0
  109.8383   64.4824   41.4304 C   0  0  0  0  0  0  0  0  0  0  0  0
  111.3645   70.1377   35.9061 C   0  0  0  0  0  0  0  0  0  0  0  0
  110.2037   65.6875   42.0133 C   0  0  0  0  0  0  0  0  0  0  0  0
  110.8839   69.6465   34.6904 C   0  0  0  0  0  0  0  0  0  0  0  0
  110.6830   68.0052   36.2188 C   0  0  0  0  0  0  0  0  0  0  0  0
  107.8297   64.4438   42.6458 C   0  0  0  0  0  0  0  0  0  0  0  0
  110.9056   66.5048   39.1884 C   0  0  0  0  0  0  0  0  0  0  0  0
  109.9132   67.4766   33.9006 C   0  0  0  0  0  0  0  0  0  0  0  0
  112.4363   65.5632   37.4407 C   0  0  0  0  0  0  0  0  0  0  0  0
  111.5083   66.3490   41.6505 C   0  0  0  0  0  0  0  0  0  0  0  0
  110.3328   66.6473   36.7551 C   0  0  0  0  0  0  0  0  0  0  0  0
  111.9257   66.0271   40.2138 C   0  0  0  0  0  0  0  0  0  0  0  0
  110.4770   68.3498   34.9098 N   0  0  0  0  0  0  0  0  0  0  0  0
  108.6761   63.9022   41.7593 N   0  0  0  0  0  4  0  0  0  0  0  0
  106.6345   63.7697   42.9308 N   0  0  0  0  0  0  0  0  0  0  0  0
  111.2120   66.2490   37.8475 N   0  0  0  0  0  0  0  0  0  0  0  0
  109.8774   67.0822   39.5513 O   0  0  0  0  0  0  0  0  0  0  0  0
  112.2110   73.2726   34.8314 H   0  0  0  0  0  0  0  0  0  0  0  0
  111.3474   72.3547   32.6974 H   0  0  0  0  0  0  0  0  0  0  0  0
  112.2337   71.8740   36.9031 H   0  0  0  0  0  0  0  0  0  0  0  0
  109.6126   67.2281   43.4121 H   0  0  0  0  0  0  0  0  0  0  0  0
  110.4794   70.0034   32.5754 H   0  0  0  0  0  0  0  0  0  0  0  0
  107.4545   66.1002   43.9894 H   0  0  0  0  0  0  0  0  0  0  0  0
  111.5166   69.1413   37.9225 H   0  0  0  0  0  0  0  0  0  0  0  0
  110.5036   64.0028   40.6974 H   0  0  0  0  0  0  0  0  0  0  0  0
  109.3786   66.6487   34.3892 H   0  0  0  0  0  0  0  0  0  0  0  0
  109.2119   68.0462   33.2731 H   0  0  0  0  0  0  0  0  0  0  0  0
  110.7210   67.0719   33.2731 H   0  0  0  0  0  0  0  0  0  0  0  0
  112.9955   65.2500   38.3347 H   0  0  0  0  0  0  0  0  0  0  0  0
  112.1787   64.6781   36.8406 H   0  0  0  0  0  0  0  0  0  0  0  0
  113.0565   66.2452   36.8406 H   0  0  0  0  0  0  0  0  0  0  0  0
  111.3964   67.4384   41.7536 H   0  0  0  0  0  0  0  0  0  0  0  0
  112.2865   65.9669   42.3275 H   0  0  0  0  0  0  0  0  0  0  0  0
  109.2962   66.6669   37.1225 H   0  0  0  0  0  0  0  0  0  0  0  0
  110.4518   65.9186   35.9398 H   0  0  0  0  0  0  0  0  0  0  0  0
  112.0407   64.9375   40.1157 H   0  0  0  0  0  0  0  0  0  0  0  0
  112.8709   66.5534   40.0148 H   0  0  0  0  0  0  0  0  0  0  0  0
  108.4243   63.0078   41.3148 H   0  0  0  0  0  0  0  0  0  0  0  0
  106.4225   62.8770   42.4628 H   0  0  0  0  0  0  0  0  0  0  0  0
  105.9681   64.1670   43.6083 H   0  0  0  0  0  0  0  0  0  0  0  0
  1  2  2  0
  1  3  1  0
  2  5  1  0
  3  9  2  0
  4  6  2  0
  4 10  1  0
  5 11  2  0
  6 13  1  0
  7  9  1  0
  7 12  2  0
  8 10  2  0
  8 21  1  0
  9 11  1  0
 10 17  1  0
 11 20  1  0
 12 18  1  0
 12 20  1  0
 13 21  2  0
 13 22  1  0
 14 19  1  0
 14 23  1  0
 14 24  2  0
 15 20  1  0
 16 23  1  0
 17 19  1  0
 18 23  1  0
  1 25  1  0
  2 26  1  0
  3 27  1  0
  4 28  1  0
  5 29  1  0
  6 30  1  0
  7 31  1  0
  8 32  1  0
 15 33  1  0
 15 34  1  0
 15 35  1  0
 16 36  1  0
 16 37  1  0
 16 38  1  0
 17 39  1  0
 17 40  1  0
 18 41  1  0
 18 42  1  0
 19 43  1  0
 19 44  1  0
 21 45  1  0
 22 46  1  0
 22 47  1  0
M  CHG  1  21   1
M  END
>  <Name>  (159) 
CHEMBL109484

>  <Comment>  (159) 
 Schrodinger Suite 2021-4.

>  <s_m_entry_id>  (159) 
1281

>  <class_value>  (159) 
0

>  <s_m_Source_Path>  (159) 
C:\Users\vinicius\Desktop

>  <s_m_Source_File>  (159) 
Ligands_Saureus_o.sdf

>  <i_m_Source_File_Index>  (159) 
166

>  <r_lp_tautomer_probability>  (159) 
0.999993852037798

>  <r_epik_Ionization_Penalty>  (159) 
0.4041

>  <r_epik_State_Penalty>  (159) 
0.4036

>  <i_epik_Tot_Q>  (159) 
1

>  <i_f3d_flags>  (159) 
0

>  <s_m_job_name>  (159) 
Saureus_o

>  <FRED Chemgauss4 score>  (159) 
-13.236405

>  <Set>  (159) 
training

>  <HBA count>  (159) 
3

>  <HBD count>  (159) 
1

>  <ExactMolWt>  (159) 
323.18663777609066

>  <NumRotatableBounds>  (159) 
8

>  <FractionCsp3>  (159) 
0.2631578947368421

>  <TPSA>  (159) 
65.4

>  <LogP_WildmanCrippen>  (159) 
2.1657999999999995

>  <General_Cluster>  (159) 
5

>  <Biological_Cluster>  (159) 
2

>  <Physicochemical_Cluster>  (159) 
4

>  <Structural_Cluster>  (159) 
3

$$$$
CHEMBL566654
     RDKit          3D

 52 55  0  0  0  0  0  0  0  0999 V2000
  111.6758   72.8369   33.9101 C   0  0  0  0  0  0  0  0  0  0  0  0
  111.9994   72.5374   35.2320 C   0  0  0  0  0  0  0  0  0  0  0  0
  111.1037   71.8696   33.0759 C   0  0  0  0  0  0  0  0  0  0  0  0
  111.7625   71.2657   35.7617 C   0  0  0  0  0  0  0  0  0  0  0  0
  110.3313   67.0226   39.0902 C   0  0  0  0  0  0  0  0  0  0  0  0
  112.2640   65.9753   39.9338 C   0  0  0  0  0  0  0  0  0  0  0  0
  110.8557   70.5805   33.5877 C   0  0  0  0  0  0  0  0  0  0  0  0
  111.4996   66.3148   38.8454 C   0  0  0  0  0  0  0  0  0  0  0  0
  110.3037   69.3870   33.0436 C   0  0  0  0  0  0  0  0  0  0  0  0
  111.1902   70.3088   34.9161 C   0  0  0  0  0  0  0  0  0  0  0  0
  109.9289   67.3781   40.3952 C   0  0  0  0  0  0  0  0  0  0  0  0
  110.3138   68.4317   34.0337 C   0  0  0  0  0  0  0  0  0  0  0  0
  110.7578   66.9489   41.4352 C   0  0  0  0  0  0  0  0  0  0  0  0
  109.4321   67.5500   43.5325 C   0  0  0  0  0  0  0  0  0  0  0  0
  111.9041   65.9642   37.4972 C   0  0  0  0  0  0  0  0  0  0  0  0
  111.0845   65.9169   36.4198 C   0  0  0  0  0  0  0  0  0  0  0  0
  111.6162   65.5085   35.0861 C   0  0  0  0  0  0  0  0  0  0  0  0
  108.1565   67.8882   42.8151 C   0  0  0  0  0  0  0  0  0  0  0  0
  108.3960   68.8627   41.6891 C   0  0  0  0  0  0  0  0  0  0  0  0
  109.8094   69.2037   31.6630 C   0  0  0  0  0  0  0  0  0  0  0  0
  111.4249   65.6967   32.6358 C   0  0  0  0  0  0  0  0  0  0  0  0
  109.8581   67.0012   34.0282 C   0  0  0  0  0  0  0  0  0  0  0  0
  111.9231   66.2771   41.2024 N   0  0  0  0  0  0  0  0  0  0  0  0
  110.8501   68.9971   35.1593 N   0  0  0  0  0  0  0  0  0  0  0  0
  108.7928   68.1515   40.5028 N   0  0  0  0  0  0  0  0  0  0  0  0
  110.5193   67.1228   42.8176 N   0  0  0  0  0  0  0  0  0  0  0  0
  110.9827   66.0690   33.9734 N   0  0  0  0  0  0  0  0  0  0  0  0
  109.4687   67.6064   44.7665 O   0  0  0  0  0  0  0  0  0  0  0  0
  112.5449   64.7020   35.0186 O   0  0  0  0  0  0  0  0  0  0  0  0
  111.8723   73.8455   33.5176 H   0  0  0  0  0  0  0  0  0  0  0  0
  112.4484   73.3140   35.8687 H   0  0  0  0  0  0  0  0  0  0  0  0
  110.8508   72.1128   32.0334 H   0  0  0  0  0  0  0  0  0  0  0  0
  112.0166   71.0260   36.8048 H   0  0  0  0  0  0  0  0  0  0  0  0
  109.6985   67.3160   38.2396 H   0  0  0  0  0  0  0  0  0  0  0  0
  113.2030   65.4288   39.7618 H   0  0  0  0  0  0  0  0  0  0  0  0
  112.9637   65.7163   37.3365 H   0  0  0  0  0  0  0  0  0  0  0  0
  110.0221   66.1807   36.5282 H   0  0  0  0  0  0  0  0  0  0  0  0
  107.7231   66.9652   42.4026 H   0  0  0  0  0  0  0  0  0  0  0  0
  107.4695   68.3561   43.5356 H   0  0  0  0  0  0  0  0  0  0  0  0
  107.4703   69.4214   41.4870 H   0  0  0  0  0  0  0  0  0  0  0  0
  109.1957   69.5607   41.9778 H   0  0  0  0  0  0  0  0  0  0  0  0
  108.7784   68.8214   31.6904 H   0  0  0  0  0  0  0  0  0  0  0  0
  109.8287   70.1688   31.1355 H   0  0  0  0  0  0  0  0  0  0  0  0
  110.4532   68.4845   31.1355 H   0  0  0  0  0  0  0  0  0  0  0  0
  112.2644   64.9899   32.7106 H   0  0  0  0  0  0  0  0  0  0  0  0
  110.5936   65.2225   32.0935 H   0  0  0  0  0  0  0  0  0  0  0  0
  111.7505   66.5966   32.0935 H   0  0  0  0  0  0  0  0  0  0  0  0
  109.2814   66.8086   34.9449 H   0  0  0  0  0  0  0  0  0  0  0  0
  109.2421   66.8440   33.1305 H   0  0  0  0  0  0  0  0  0  0  0  0
  110.9803   68.5113   36.0582 H   0  0  0  0  0  0  0  0  0  0  0  0
  108.1845   68.2256   39.6749 H   0  0  0  0  0  0  0  0  0  0  0  0
  111.3277   66.8785   43.4072 H   0  0  0  0  0  0  0  0  0  0  0  0
  1  2  2  0
  1  3  1  0
  2  4  1  0
  3  7  2  0
  4 10  2  0
  5  8  2  0
  5 11  1  0
  6  8  1  0
  6 23  2  0
  7  9  1  0
  7 10  1  0
  8 15  1  0
  9 12  2  0
  9 20  1  0
 10 24  1  0
 11 13  2  0
 11 25  1  0
 12 22  1  0
 12 24  1  0
 13 23  1  0
 13 26  1  0
 14 18  1  0
 14 26  1  0
 14 28  2  0
 15 16  2  0
 16 17  1  0
 17 27  1  0
 17 29  2  0
 18 19  1  0
 19 25  1  0
 21 27  1  0
 22 27  1  0
  1 30  1  0
  2 31  1  0
  3 32  1  0
  4 33  1  0
  5 34  1  0
  6 35  1  0
 15 36  1  0
 16 37  1  0
 18 38  1  0
 18 39  1  0
 19 40  1  0
 19 41  1  0
 20 42  1  0
 20 43  1  0
 20 44  1  0
 21 45  1  0
 21 46  1  0
 21 47  1  0
 22 48  1  0
 22 49  1  0
 24 50  1  0
 25 51  1  0
 26 52  1  0
M  END
>  <Name>  (160) 
CHEMBL566654

>  <Comment>  (160) 
 Schrodinger Suite 2021-4.

>  <s_m_entry_id>  (160) 
1357

>  <class_value>  (160) 
1

>  <s_m_Source_Path>  (160) 
C:\Users\vinicius\Desktop

>  <s_m_Source_File>  (160) 
Ligands_Saureus_o.sdf

>  <i_m_Source_File_Index>  (160) 
209

>  <r_lp_tautomer_probability>  (160) 
1

>  <r_epik_Ionization_Penalty>  (160) 
0.0015

>  <r_epik_State_Penalty>  (160) 
0

>  <i_epik_Tot_Q>  (160) 
0

>  <i_f3d_flags>  (160) 
0

>  <s_m_job_name>  (160) 
Saureus_o

>  <FRED Chemgauss4 score>  (160) 
-17.558771

>  <Set>  (160) 
training

>  <HBA count>  (160) 
4

>  <HBD count>  (160) 
3

>  <ExactMolWt>  (160) 
389.1851749760007

>  <NumRotatableBounds>  (160) 
6

>  <FractionCsp3>  (160) 
0.22727272727272727

>  <TPSA>  (160) 
90.12

>  <LogP_WildmanCrippen>  (160) 
3.297220000000001

>  <General_Cluster>  (160) 
1

>  <Biological_Cluster>  (160) 
1

>  <Physicochemical_Cluster>  (160) 
1

>  <Structural_Cluster>  (160) 
2

$$$$
CHEMBL4204858
     RDKit          3D

 39 41  0  0  1  0  0  0  0  0999 V2000
  111.9791   71.9661   33.7941 C   0  0  0  0  0  0  0  0  0  0  0  0
  112.3081   71.4210   32.5531 C   0  0  0  0  0  0  0  0  0  0  0  0
  111.0880   71.2990   34.6347 C   0  0  0  0  0  0  0  0  0  0  0  0
  112.3281   66.2194   39.8830 C   0  0  0  0  0  0  0  0  0  0  0  0
  111.7459   70.2090   32.1525 C   0  0  0  0  0  0  0  0  0  0  0  0
  110.5257   70.0869   34.2342 C   0  0  0  0  0  0  0  0  0  0  0  0
  111.8770   64.9179   39.6635 C   0  0  0  0  0  0  0  0  0  0  0  0
  112.0598   67.2178   38.9465 C   0  0  0  0  0  0  0  0  0  0  0  0
  110.8547   69.5419   32.9931 C   0  0  0  0  0  0  0  0  0  0  0  0
  110.8892   65.6130   37.5711 C   0  0  0  0  0  0  0  0  0  0  0  0
  111.1575   64.6147   38.5076 C   0  0  0  0  0  0  0  0  0  0  0  0
  111.3403   66.9146   37.7906 C   0  0  0  0  0  0  0  0  0  0  0  0
  110.8975   65.5913   35.0759 C   0  0  0  0  0  0  0  0  0  0  0  0
  108.8433   68.0186   33.1616 C   0  0  0  0  0  0  0  0  0  0  0  0
  109.0997   67.2750   34.4661 C   0  0  0  0  0  0  0  0  0  0  0  0
  110.9808   66.9538   32.9982 C   0  0  0  0  0  0  0  0  0  0  0  0
  110.2422   68.2228   32.5576 C   0  0  2  0  0  0  0  0  0  0  0  0
  110.1153   65.2872   36.3284 C   0  0  0  0  0  0  0  0  0  0  0  0
  110.3430   66.5473   34.2434 N   0  0  0  0  0  0  0  0  0  0  0  0
  111.9544   65.0028   34.8422 O   0  0  0  0  0  0  0  0  0  0  0  0
  110.7285   63.3611   38.3056 F   0  0  0  0  0  0  0  0  0  0  0  0
  111.0876   67.8805   36.8964 F   0  0  0  0  0  0  0  0  0  0  0  0
  112.4223   72.9220   34.1099 H   0  0  0  0  0  0  0  0  0  0  0  0
  113.0110   71.9470   31.8903 H   0  0  0  0  0  0  0  0  0  0  0  0
  110.8287   71.7288   35.6135 H   0  0  0  0  0  0  0  0  0  0  0  0
  112.8954   66.4585   40.7946 H   0  0  0  0  0  0  0  0  0  0  0  0
  112.0053   69.7792   31.1737 H   0  0  0  0  0  0  0  0  0  0  0  0
  109.8229   69.5609   34.8971 H   0  0  0  0  0  0  0  0  0  0  0  0
  112.0887   64.1306   40.4020 H   0  0  0  0  0  0  0  0  0  0  0  0
  112.4156   68.2442   39.1195 H   0  0  0  0  0  0  0  0  0  0  0  0
  108.2125   67.4188   32.4890 H   0  0  0  0  0  0  0  0  0  0  0  0
  108.3109   68.9684   33.3177 H   0  0  0  0  0  0  0  0  0  0  0  0
  109.2097   67.9834   35.3004 H   0  0  0  0  0  0  0  0  0  0  0  0
  108.2688   66.6048   34.7315 H   0  0  0  0  0  0  0  0  0  0  0  0
  110.8783   66.1653   32.2381 H   0  0  0  0  0  0  0  0  0  0  0  0
  112.0582   67.1325   33.1299 H   0  0  0  0  0  0  0  0  0  0  0  0
  110.2701   68.3267   31.4629 H   0  0  0  0  0  0  0  0  0  0  0  0
  109.8637   64.2164   36.3380 H   0  0  0  0  0  0  0  0  0  0  0  0
  109.2091   65.9106   36.3210 H   0  0  0  0  0  0  0  0  0  0  0  0
  1  2  2  0
  1  3  1  0
  2  5  1  0
  3  6  2  0
  4  7  2  0
  4  8  1  0
  5  9  2  0
  6  9  1  0
  7 11  1  0
  8 12  2  0
  9 17  1  0
 10 11  2  0
 10 12  1  0
 10 18  1  0
 11 21  1  0
 12 22  1  0
 13 18  1  0
 13 19  1  0
 13 20  2  0
 14 15  1  0
 14 17  1  0
 15 19  1  0
 16 17  1  0
 16 19  1  0
  1 23  1  0
  2 24  1  0
  3 25  1  0
  4 26  1  0
  5 27  1  0
  6 28  1  0
  7 29  1  0
  8 30  1  0
 14 31  1  0
 14 32  1  0
 15 33  1  0
 15 34  1  0
 16 35  1  0
 16 36  1  0
 17 37  1  6
 18 38  1  0
 18 39  1  0
M  END
>  <Name>  (161) 
CHEMBL4204858

>  <Comment>  (161) 
 Schrodinger Suite 2021-4.

>  <s_m_entry_id>  (161) 
1447

>  <s_m_Source_Path>  (161) 
C:\Users\vinicius\Desktop

>  <s_m_Source_File>  (161) 
Ligands_Saureus_failomega.smi

>  <i_m_Source_File_Index>  (161) 
12

>  <r_lp_tautomer_probability>  (161) 
1

>  <r_epik_Ionization_Penalty>  (161) 
0

>  <r_epik_State_Penalty>  (161) 
0

>  <i_epik_Tot_Q>  (161) 
0

>  <i_f3d_flags>  (161) 
0

>  <s_m_job_name>  (161) 
Saureus_fail

>  <class_value>  (161) 
0

>  <FRED Chemgauss4 score>  (161) 
-16.336872

>  <Set>  (161) 
training

>  <HBA count>  (161) 
1

>  <HBD count>  (161) 
0

>  <ExactMolWt>  (161) 
301.1278206040005

>  <NumRotatableBounds>  (161) 
3

>  <FractionCsp3>  (161) 
0.2777777777777778

>  <TPSA>  (161) 
20.310000000000002

>  <LogP_WildmanCrippen>  (161) 
3.5234000000000023

>  <General_Cluster>  (161) 
2

>  <Biological_Cluster>  (161) 
2

>  <Physicochemical_Cluster>  (161) 
3

>  <Structural_Cluster>  (161) 
3

$$$$
CHEMBL72164
     RDKit          3D

 53 57  0  0  0  0  0  0  0  0999 V2000
  105.0039   70.3924   44.0033 C   0  0  0  0  0  0  0  0  0  0  0  0
  104.1107   69.3870   43.6397 C   0  0  0  0  0  0  0  0  0  0  0  0
  106.3850   70.1694   43.9718 C   0  0  0  0  0  0  0  0  0  0  0  0
  106.8134   62.3616   44.3568 C   0  0  0  0  0  0  0  0  0  0  0  0
  105.4886   63.8251   45.7496 C   0  0  0  0  0  0  0  0  0  0  0  0
  110.5115   66.7005   39.6824 C   0  0  0  0  0  0  0  0  0  0  0  0
  111.7154   64.6780   40.2275 C   0  0  0  0  0  0  0  0  0  0  0  0
  106.7882   63.3109   43.3352 C   0  0  0  0  0  0  0  0  0  0  0  0
  105.4633   64.7745   44.7279 C   0  0  0  0  0  0  0  0  0  0  0  0
  104.5669   68.1299   43.2335 C   0  0  0  0  0  0  0  0  0  0  0  0
  110.2653   66.2085   38.4007 C   0  0  0  0  0  0  0  0  0  0  0  0
  111.4692   64.1860   38.9457 C   0  0  0  0  0  0  0  0  0  0  0  0
  106.8705   68.9098   43.5666 C   0  0  0  0  0  0  0  0  0  0  0  0
  111.2366   65.9353   40.5958 C   0  0  0  0  0  0  0  0  0  0  0  0
  106.1636   62.6186   45.5640 C   0  0  0  0  0  0  0  0  0  0  0  0
  108.1653   68.3428   43.4175 C   0  0  0  0  0  0  0  0  0  0  0  0
  106.1131   64.5173   43.5207 C   0  0  0  0  0  0  0  0  0  0  0  0
  105.9503   67.9190   43.2058 C   0  0  0  0  0  0  0  0  0  0  0  0
  110.7441   64.9512   38.0323 C   0  0  0  0  0  0  0  0  0  0  0  0
  108.0052   67.0472   42.9733 C   0  0  0  0  0  0  0  0  0  0  0  0
  111.4962   66.4538   41.9475 C   0  0  0  0  0  0  0  0  0  0  0  0
  106.1901   61.6163   46.6413 C   0  0  0  0  0  0  0  0  0  0  0  0
  109.5175   68.9208   43.6434 C   0  0  0  0  0  0  0  0  0  0  0  0
  109.0849   66.0675   42.6852 C   0  0  0  0  0  0  0  0  0  0  0  0
  110.5474   67.7902   43.8089 C   0  0  0  0  0  0  0  0  0  0  0  0
  106.0890   65.5420   42.4189 C   0  0  0  0  0  0  0  0  0  0  0  0
  106.6686   66.7964   42.8510 N   0  0  0  0  0  0  0  0  0  0  0  0
  110.3985   66.7566   42.7618 N   0  0  0  0  0  0  0  0  0  0  0  0
  105.5826   61.8779   47.7465 O   0  0  0  0  0  1  0  0  0  0  0  0
  112.6780   66.5779   42.2664 O   0  0  0  0  0  0  0  0  0  0  0  0
  106.8201   60.5104   46.4438 O   0  0  0  0  0  0  0  0  0  0  0  0
  110.5041   64.4709   36.7817 O   0  0  0  0  0  0  0  0  0  0  0  0
  104.6189   71.3733   44.3189 H   0  0  0  0  0  0  0  0  0  0  0  0
  103.0293   69.5857   43.6728 H   0  0  0  0  0  0  0  0  0  0  0  0
  107.0840   70.9683   44.2601 H   0  0  0  0  0  0  0  0  0  0  0  0
  107.3458   61.4102   44.2105 H   0  0  0  0  0  0  0  0  0  0  0  0
  104.9762   64.0279   46.7016 H   0  0  0  0  0  0  0  0  0  0  0  0
  110.1338   67.6920   39.9729 H   0  0  0  0  0  0  0  0  0  0  0  0
  112.2871   64.0745   40.9479 H   0  0  0  0  0  0  0  0  0  0  0  0
  107.3007   63.1082   42.3832 H   0  0  0  0  0  0  0  0  0  0  0  0
  104.9310   65.7259   44.8742 H   0  0  0  0  0  0  0  0  0  0  0  0
  103.8637   67.3345   42.9458 H   0  0  0  0  0  0  0  0  0  0  0  0
  109.6935   66.8120   37.6804 H   0  0  0  0  0  0  0  0  0  0  0  0
  111.8469   63.1946   38.6552 H   0  0  0  0  0  0  0  0  0  0  0  0
  109.7962   69.5452   42.7817 H   0  0  0  0  0  0  0  0  0  0  0  0
  109.5020   69.5341   44.5565 H   0  0  0  0  0  0  0  0  0  0  0  0
  109.0517   65.2543   43.4252 H   0  0  0  0  0  0  0  0  0  0  0  0
  108.9450   65.6466   41.6786 H   0  0  0  0  0  0  0  0  0  0  0  0
  111.5590   68.2177   43.7465 H   0  0  0  0  0  0  0  0  0  0  0  0
  110.3799   67.3144   44.7864 H   0  0  0  0  0  0  0  0  0  0  0  0
  106.6624   65.1593   41.5617 H   0  0  0  0  0  0  0  0  0  0  0  0
  105.0411   65.7235   42.1380 H   0  0  0  0  0  0  0  0  0  0  0  0
  110.8440   63.5785   36.5205 H   0  0  0  0  0  0  0  0  0  0  0  0
  1  2  2  0
  1  3  1  0
  2 10  1  0
  3 13  2  0
  4  8  2  0
  4 15  1  0
  5  9  1  0
  5 15  2  0
  6 11  2  0
  6 14  1  0
  7 12  1  0
  7 14  2  0
  8 17  1  0
  9 17  2  0
 10 18  2  0
 11 19  1  0
 12 19  2  0
 13 16  1  0
 13 18  1  0
 14 21  1  0
 15 22  1  0
 16 20  2  0
 16 23  1  0
 17 26  1  0
 18 27  1  0
 19 32  1  0
 20 24  1  0
 20 27  1  0
 21 28  1  0
 21 30  2  0
 22 29  1  0
 22 31  2  0
 23 25  1  0
 24 28  1  0
 25 28  1  0
 26 27  1  0
  1 33  1  0
  2 34  1  0
  3 35  1  0
  4 36  1  0
  5 37  1  0
  6 38  1  0
  7 39  1  0
  8 40  1  0
  9 41  1  0
 10 42  1  0
 11 43  1  0
 12 44  1  0
 23 45  1  0
 23 46  1  0
 24 47  1  0
 24 48  1  0
 25 49  1  0
 25 50  1  0
 26 51  1  0
 26 52  1  0
 32 53  1  0
M  CHG  1  29  -1
M  END
>  <Name>  (162) 
CHEMBL72164

>  <Comment>  (162) 
 Schrodinger Suite 2021-4.

>  <s_m_entry_id>  (162) 
1261

>  <class_value>  (162) 
0

>  <s_m_Source_Path>  (162) 
C:\Users\vinicius\Desktop

>  <s_m_Source_File>  (162) 
Ligands_Saureus_o.sdf

>  <i_m_Source_File_Index>  (162) 
153

>  <r_lp_tautomer_probability>  (162) 
0.999999999997365

>  <r_epik_Ionization_Penalty>  (162) 
0.0153

>  <r_epik_State_Penalty>  (162) 
0.0114

>  <i_epik_Tot_Q>  (162) 
-1

>  <i_f3d_flags>  (162) 
0

>  <s_m_job_name>  (162) 
Saureus_o

>  <FRED Chemgauss4 score>  (162) 
-10.755276

>  <Set>  (162) 
training

>  <HBA count>  (162) 
5

>  <HBD count>  (162) 
1

>  <ExactMolWt>  (162) 
425.15068073191054

>  <NumRotatableBounds>  (162) 
5

>  <FractionCsp3>  (162) 
0.15384615384615385

>  <TPSA>  (162) 
85.60000000000001

>  <LogP_WildmanCrippen>  (162) 
2.9572000000000016

>  <General_Cluster>  (162) 
3

>  <Biological_Cluster>  (162) 
2

>  <Physicochemical_Cluster>  (162) 
1

>  <Structural_Cluster>  (162) 
4

$$$$
CHEMBL62515
     RDKit          3D

 30 32  0  0  0  0  0  0  0  0999 V2000
  110.7689   70.9603   33.9842 C   0  0  0  0  0  0  0  0  0  0  0  0
  111.4832   69.9677   31.9005 C   0  0  0  0  0  0  0  0  0  0  0  0
  110.0860   69.7881   34.3085 C   0  0  0  0  0  0  0  0  0  0  0  0
  110.8003   68.7954   32.2249 C   0  0  0  0  0  0  0  0  0  0  0  0
  111.9129   64.6417   38.5730 C   0  0  0  0  0  0  0  0  0  0  0  0
  112.0206   64.7478   39.9422 C   0  0  0  0  0  0  0  0  0  0  0  0
  110.6636   66.5591   38.9793 C   0  0  0  0  0  0  0  0  0  0  0  0
  111.1269   65.6910   38.0151 C   0  0  0  0  0  0  0  0  0  0  0  0
  111.4674   71.0501   32.7802 C   0  0  0  0  0  0  0  0  0  0  0  0
  110.1017   68.7057   33.4289 C   0  0  0  0  0  0  0  0  0  0  0  0
  110.8231   65.8593   36.5789 C   0  0  0  0  0  0  0  0  0  0  0  0
  110.0988   66.5767   34.7788 C   0  0  0  0  0  0  0  0  0  0  0  0
  112.1978   72.3030   32.4326 C   0  0  0  0  0  0  0  0  0  0  0  0
  109.3727   67.4520   33.7772 C   0  0  0  0  0  0  0  0  0  0  0  0
  110.0940   66.8435   36.1170 N   0  0  0  0  0  0  0  0  0  0  0  0
  110.7850   65.4926   34.4050 N   0  0  0  0  0  0  0  0  0  0  0  0
  111.2760   65.0061   35.6231 O   0  0  0  0  0  0  0  0  0  0  0  0
  111.1763   66.1081   40.5496 S   0  0  0  0  0  0  0  0  0  0  0  0
  110.7566   71.8139   34.6779 H   0  0  0  0  0  0  0  0  0  0  0  0
  112.0341   70.0385   30.9510 H   0  0  0  0  0  0  0  0  0  0  0  0
  109.5351   69.7173   35.2579 H   0  0  0  0  0  0  0  0  0  0  0  0
  110.8127   67.9417   31.5313 H   0  0  0  0  0  0  0  0  0  0  0  0
  112.3790   63.8410   37.9800 H   0  0  0  0  0  0  0  0  0  0  0  0
  112.5827   64.0419   40.5712 H   0  0  0  0  0  0  0  0  0  0  0  0
  110.0381   67.4383   38.7656 H   0  0  0  0  0  0  0  0  0  0  0  0
  112.4991   72.8199   33.3557 H   0  0  0  0  0  0  0  0  0  0  0  0
  113.0924   72.0543   31.8429 H   0  0  0  0  0  0  0  0  0  0  0  0
  111.5406   72.9590   31.8429 H   0  0  0  0  0  0  0  0  0  0  0  0
  108.3955   67.7262   34.2014 H   0  0  0  0  0  0  0  0  0  0  0  0
  109.2819   66.8676   32.8497 H   0  0  0  0  0  0  0  0  0  0  0  0
  1  3  2  0
  1  9  1  0
  2  4  1  0
  2  9  2  0
  3 10  1  0
  4 10  2  0
  5  6  2  0
  5  8  1  0
  6 18  1  0
  7  8  2  0
  7 18  1  0
  8 11  1  0
  9 13  1  0
 10 14  1  0
 11 15  2  0
 11 17  1  0
 12 14  1  0
 12 15  1  0
 12 16  2  0
 16 17  1  0
  1 19  1  0
  2 20  1  0
  3 21  1  0
  4 22  1  0
  5 23  1  0
  6 24  1  0
  7 25  1  0
 13 26  1  0
 13 27  1  0
 13 28  1  0
 14 29  1  0
 14 30  1  0
M  END
>  <Name>  (163) 
CHEMBL62515

>  <Comment>  (163) 
 Schrodinger Suite 2021-4.

>  <s_m_entry_id>  (163) 
1302

>  <class_value>  (163) 
0

>  <s_m_Source_Path>  (163) 
C:\Users\vinicius\Desktop

>  <s_m_Source_File>  (163) 
Ligands_Saureus_o.sdf

>  <i_m_Source_File_Index>  (163) 
179

>  <r_lp_tautomer_probability>  (163) 
1

>  <r_epik_Ionization_Penalty>  (163) 
0

>  <r_epik_State_Penalty>  (163) 
0

>  <i_epik_Tot_Q>  (163) 
0

>  <i_f3d_flags>  (163) 
0

>  <s_m_job_name>  (163) 
Saureus_o

>  <FRED Chemgauss4 score>  (163) 
-11.697050

>  <Set>  (163) 
training

>  <HBA count>  (163) 
4

>  <HBD count>  (163) 
0

>  <ExactMolWt>  (163) 
256.067034004

>  <NumRotatableBounds>  (163) 
4

>  <FractionCsp3>  (163) 
0.14285714285714285

>  <TPSA>  (163) 
38.92

>  <LogP_WildmanCrippen>  (163) 
3.697320000000003

>  <General_Cluster>  (163) 
4

>  <Biological_Cluster>  (163) 
2

>  <Physicochemical_Cluster>  (163) 
3

>  <Structural_Cluster>  (163) 
1

$$$$
CHEMBL3623398
     RDKit          3D

 36 38  0  0  0  0  0  0  0  0999 V2000
  105.3837   62.3590   44.6945 C   0  0  0  0  0  0  0  0  0  0  0  0
  110.6903   66.2422   36.6264 C   0  0  0  0  0  0  0  0  0  0  0  0
  110.1445   66.2473   35.3428 C   0  0  0  0  0  0  0  0  0  0  0  0
  106.2125   62.3638   43.5472 C   0  0  0  0  0  0  0  0  0  0  0  0
  110.3101   68.6569   35.2820 C   0  0  0  0  0  0  0  0  0  0  0  0
  105.5365   63.5936   45.2813 C   0  0  0  0  0  0  0  0  0  0  0  0
  110.8560   68.6517   36.5657 C   0  0  0  0  0  0  0  0  0  0  0  0
  111.0460   67.4444   37.2379 C   0  0  0  0  0  0  0  0  0  0  0  0
  109.9544   67.4547   34.6706 C   0  0  0  0  0  0  0  0  0  0  0  0
  106.8125   63.6012   43.5146 C   0  0  0  0  0  0  0  0  0  0  0  0
  110.4111   65.1712   41.3087 C   0  0  0  0  0  0  0  0  0  0  0  0
  109.6050   67.3724   39.8169 C   0  0  0  0  0  0  0  0  0  0  0  0
  110.8066   66.8786   39.4948 C   0  0  0  0  0  0  0  0  0  0  0  0
  109.2370   65.7778   41.5098 C   0  0  0  0  0  0  0  0  0  0  0  0
  111.3017   65.7020   40.2502 C   0  0  0  0  0  0  0  0  0  0  0  0
  107.7703   64.1027   42.5137 C   0  0  0  0  0  0  0  0  0  0  0  0
  108.3116   65.3288   42.5152 C   0  0  0  0  0  0  0  0  0  0  0  0
  111.2290   69.9480   37.2059 C   0  0  0  0  0  0  0  0  0  0  0  0
  112.3905   65.1904   40.0168 O   0  0  0  0  0  0  0  0  0  0  0  0
  106.4057   64.3568   44.5682 O   0  0  0  0  0  0  0  0  0  0  0  0
  108.7860   66.8709   40.8008 O   0  0  0  0  0  0  0  0  0  0  0  0
  111.5800   67.4217   38.4974 O   0  0  0  0  0  0  0  0  0  0  0  0
  109.2810   67.4617   33.0871 Cl  0  0  0  0  0  0  0  0  0  0  0  0
  104.7461   61.5344   45.0459 H   0  0  0  0  0  0  0  0  0  0  0  0
  110.8402   65.2901   37.1565 H   0  0  0  0  0  0  0  0  0  0  0  0
  109.8640   65.2992   34.8606 H   0  0  0  0  0  0  0  0  0  0  0  0
  106.3492   61.5436   42.8270 H   0  0  0  0  0  0  0  0  0  0  0  0
  110.1601   69.6090   34.7519 H   0  0  0  0  0  0  0  0  0  0  0  0
  105.0260   63.9180   46.2001 H   0  0  0  0  0  0  0  0  0  0  0  0
  110.7081   64.3013   41.9129 H   0  0  0  0  0  0  0  0  0  0  0  0
  109.2457   68.2451   39.2519 H   0  0  0  0  0  0  0  0  0  0  0  0
  108.0634   63.4188   41.7035 H   0  0  0  0  0  0  0  0  0  0  0  0
  108.0355   66.0234   43.3222 H   0  0  0  0  0  0  0  0  0  0  0  0
  111.1976   69.8390   38.3000 H   0  0  0  0  0  0  0  0  0  0  0  0
  112.2452   70.2316   36.8947 H   0  0  0  0  0  0  0  0  0  0  0  0
  110.5190   70.7284   36.8947 H   0  0  0  0  0  0  0  0  0  0  0  0
  1  4  1  0
  1  6  2  0
  2  3  2  0
  2  8  1  0
  3  9  1  0
  4 10  2  0
  5  7  1  0
  5  9  2  0
  6 20  1  0
  7  8  2  0
  7 18  1  0
  8 22  1  0
  9 23  1  0
 10 16  1  0
 10 20  1  0
 11 14  2  0
 11 15  1  0
 12 13  2  0
 12 21  1  0
 13 15  1  0
 13 22  1  0
 14 17  1  0
 14 21  1  0
 15 19  2  0
 16 17  2  0
  1 24  1  0
  2 25  1  0
  3 26  1  0
  4 27  1  0
  5 28  1  0
  6 29  1  0
 11 30  1  0
 12 31  1  0
 16 32  1  0
 17 33  1  0
 18 34  1  0
 18 35  1  0
 18 36  1  0
M  END
>  <Name>  (164) 
CHEMBL3623398

>  <Comment>  (164) 
 Schrodinger Suite 2021-4.

>  <s_m_entry_id>  (164) 
1239

>  <class_value>  (164) 
0

>  <s_m_Source_Path>  (164) 
C:\Users\vinicius\Desktop

>  <s_m_Source_File>  (164) 
Ligands_Saureus_o.sdf

>  <i_m_Source_File_Index>  (164) 
132

>  <r_lp_tautomer_probability>  (164) 
1

>  <r_epik_Ionization_Penalty>  (164) 
0

>  <r_epik_State_Penalty>  (164) 
0

>  <i_epik_Tot_Q>  (164) 
0

>  <i_f3d_flags>  (164) 
0

>  <s_m_job_name>  (164) 
Saureus_o

>  <FRED Chemgauss4 score>  (164) 
-10.866289

>  <Set>  (164) 
training

>  <HBA count>  (164) 
4

>  <HBD count>  (164) 
0

>  <ExactMolWt>  (164) 
328.0502365760003

>  <NumRotatableBounds>  (164) 
5

>  <FractionCsp3>  (164) 
0.05555555555555555

>  <TPSA>  (164) 
52.58

>  <LogP_WildmanCrippen>  (164) 
5.157320000000003

>  <General_Cluster>  (164) 
4

>  <Biological_Cluster>  (164) 
2

>  <Physicochemical_Cluster>  (164) 
3

>  <Structural_Cluster>  (164) 
1

$$$$
CHEMBL3623428
     RDKit          3D

 50 53  0  0  0  0  0  0  0  0999 V2000
  106.2795   62.9916   44.7777 C   0  0  0  0  0  0  0  0  0  0  0  0
  107.6377   62.7211   44.6113 C   0  0  0  0  0  0  0  0  0  0  0  0
  105.6334   63.8754   43.9132 C   0  0  0  0  0  0  0  0  0  0  0  0
  109.5834   66.9863   34.4176 C   0  0  0  0  0  0  0  0  0  0  0  0
  108.3499   63.3344   43.5807 C   0  0  0  0  0  0  0  0  0  0  0  0
  106.3456   64.4887   42.8826 C   0  0  0  0  0  0  0  0  0  0  0  0
  110.4602   66.7088   35.4663 C   0  0  0  0  0  0  0  0  0  0  0  0
  109.9145   69.3538   34.7670 C   0  0  0  0  0  0  0  0  0  0  0  0
  109.3106   68.3088   34.0679 C   0  0  0  0  0  0  0  0  0  0  0  0
  110.7914   69.0764   35.8158 C   0  0  0  0  0  0  0  0  0  0  0  0
  107.7039   64.2182   42.7163 C   0  0  0  0  0  0  0  0  0  0  0  0
  111.0642   67.7539   36.1654 C   0  0  0  0  0  0  0  0  0  0  0  0
  111.4018   64.7041   39.7506 C   0  0  0  0  0  0  0  0  0  0  0  0
  110.3887   67.1849   38.9939 C   0  0  0  0  0  0  0  0  0  0  0  0
  111.4118   66.7458   38.2473 C   0  0  0  0  0  0  0  0  0  0  0  0
  110.3716   65.2550   40.4231 C   0  0  0  0  0  0  0  0  0  0  0  0
  112.0007   65.4268   38.5965 C   0  0  0  0  0  0  0  0  0  0  0  0
  108.7577   67.2924   42.3014 C   0  0  0  0  0  0  0  0  0  0  0  0
  108.7925   68.4868   41.3945 C   0  0  0  0  0  0  0  0  0  0  0  0
  108.7051   67.1044   40.8109 C   0  0  0  0  0  0  0  0  0  0  0  0
  108.3741   68.6047   32.9457 C   0  0  0  0  0  0  0  0  0  0  0  0
  111.4301   70.2073   36.5526 C   0  0  0  0  0  0  0  0  0  0  0  0
  109.7781   64.5080   41.5896 C   0  0  0  0  0  0  0  0  0  0  0  0
  109.8312   66.5066   40.0718 N   0  0  0  0  0  0  0  0  0  0  0  0
  112.9384   64.9496   37.9676 O   0  0  0  0  0  0  0  0  0  0  0  0
  111.9205   67.4635   37.1926 O   0  0  0  0  0  0  0  0  0  0  0  0
  108.4055   64.8240   41.7016 O   0  0  0  0  0  0  0  0  0  0  0  0
  105.7179   62.5080   45.5906 H   0  0  0  0  0  0  0  0  0  0  0  0
  108.1472   62.0241   45.2929 H   0  0  0  0  0  0  0  0  0  0  0  0
  104.5623   64.0887   44.0443 H   0  0  0  0  0  0  0  0  0  0  0  0
  109.1070   66.1622   33.8663 H   0  0  0  0  0  0  0  0  0  0  0  0
  109.4210   63.1211   43.4496 H   0  0  0  0  0  0  0  0  0  0  0  0
  105.8361   65.1857   42.2010 H   0  0  0  0  0  0  0  0  0  0  0  0
  110.6754   65.6659   35.7420 H   0  0  0  0  0  0  0  0  0  0  0  0
  109.6993   70.3967   34.4913 H   0  0  0  0  0  0  0  0  0  0  0  0
  111.7981   63.7239   40.0541 H   0  0  0  0  0  0  0  0  0  0  0  0
  109.9550   68.1614   38.7324 H   0  0  0  0  0  0  0  0  0  0  0  0
  109.6586   67.0005   42.8610 H   0  0  0  0  0  0  0  0  0  0  0  0
  108.1296   66.9767   43.1475 H   0  0  0  0  0  0  0  0  0  0  0  0
  107.9257   69.1620   41.3410 H   0  0  0  0  0  0  0  0  0  0  0  0
  109.4689   69.3444   41.2640 H   0  0  0  0  0  0  0  0  0  0  0  0
  108.0236   66.5963   40.1127 H   0  0  0  0  0  0  0  0  0  0  0  0
  107.3997   68.9126   33.3528 H   0  0  0  0  0  0  0  0  0  0  0  0
  108.7865   69.4163   32.3283 H   0  0  0  0  0  0  0  0  0  0  0  0
  108.2453   67.7035   32.3283 H   0  0  0  0  0  0  0  0  0  0  0  0
  111.3353   70.0394   37.6356 H   0  0  0  0  0  0  0  0  0  0  0  0
  112.4948   70.2661   36.2825 H   0  0  0  0  0  0  0  0  0  0  0  0
  110.9307   71.1495   36.2825 H   0  0  0  0  0  0  0  0  0  0  0  0
  109.8934   63.4259   41.4291 H   0  0  0  0  0  0  0  0  0  0  0  0
  110.2981   64.7988   42.5143 H   0  0  0  0  0  0  0  0  0  0  0  0
  1  2  2  0
  1  3  1  0
  2  5  1  0
  3  6  2  0
  4  7  2  0
  4  9  1  0
  5 11  2  0
  6 11  1  0
  7 12  1  0
  8  9  2  0
  8 10  1  0
  9 21  1  0
 10 12  2  0
 10 22  1  0
 11 27  1  0
 12 26  1  0
 13 16  2  0
 13 17  1  0
 14 15  2  0
 14 24  1  0
 15 17  1  0
 15 26  1  0
 16 23  1  0
 16 24  1  0
 17 25  2  0
 18 19  1  0
 18 20  1  0
 19 20  1  0
 20 24  1  0
 23 27  1  0
  1 28  1  0
  2 29  1  0
  3 30  1  0
  4 31  1  0
  5 32  1  0
  6 33  1  0
  7 34  1  0
  8 35  1  0
 13 36  1  0
 14 37  1  0
 18 38  1  0
 18 39  1  0
 19 40  1  0
 19 41  1  0
 20 42  1  0
 21 43  1  0
 21 44  1  0
 21 45  1  0
 22 46  1  0
 22 47  1  0
 22 48  1  0
 23 49  1  0
 23 50  1  0
M  END
>  <Name>  (165) 
CHEMBL3623428

>  <Comment>  (165) 
 Schrodinger Suite 2021-4.

>  <s_m_entry_id>  (165) 
1234

>  <class_value>  (165) 
0

>  <s_m_Source_Path>  (165) 
C:\Users\vinicius\Desktop

>  <s_m_Source_File>  (165) 
Ligands_Saureus_o.sdf

>  <i_m_Source_File_Index>  (165) 
127

>  <r_lp_tautomer_probability>  (165) 
1

>  <r_epik_Ionization_Penalty>  (165) 
0

>  <r_epik_State_Penalty>  (165) 
0

>  <i_epik_Tot_Q>  (165) 
0

>  <i_f3d_flags>  (165) 
0

>  <s_m_job_name>  (165) 
Saureus_o

>  <FRED Chemgauss4 score>  (165) 
-13.177849

>  <Set>  (165) 
training

>  <HBA count>  (165) 
4

>  <HBD count>  (165) 
0

>  <ExactMolWt>  (165) 
361.1677935960006

>  <NumRotatableBounds>  (165) 
8

>  <FractionCsp3>  (165) 
0.2608695652173913

>  <TPSA>  (165) 
40.46

>  <LogP_WildmanCrippen>  (165) 
5.171340000000004

>  <General_Cluster>  (165) 
1

>  <Biological_Cluster>  (165) 
2

>  <Physicochemical_Cluster>  (165) 
1

>  <Structural_Cluster>  (165) 
5

$$$$
CHEMBL3680372
     RDKit          3D

 51 53  0  0  0  0  0  0  0  0999 V2000
  109.3740   66.1281   37.5015 C   0  0  0  0  0  0  0  0  0  0  0  0
  109.0479   66.3227   38.8436 C   0  0  0  0  0  0  0  0  0  0  0  0
  111.7221   66.2768   38.0503 C   0  0  0  0  0  0  0  0  0  0  0  0
  107.0581   64.9430   42.9304 C   0  0  0  0  0  0  0  0  0  0  0  0
  109.5632   64.4039   41.8273 C   0  0  0  0  0  0  0  0  0  0  0  0
  110.7111   66.1051   37.1048 C   0  0  0  0  0  0  0  0  0  0  0  0
  107.5981   63.6600   43.0199 C   0  0  0  0  0  0  0  0  0  0  0  0
  110.0589   66.4944   39.7891 C   0  0  0  0  0  0  0  0  0  0  0  0
  107.7707   65.9565   42.2893 C   0  0  0  0  0  0  0  0  0  0  0  0
  109.0232   65.6869   41.7378 C   0  0  0  0  0  0  0  0  0  0  0  0
  111.3961   66.4715   39.3925 C   0  0  0  0  0  0  0  0  0  0  0  0
  108.8506   63.3905   42.4684 C   0  0  0  0  0  0  0  0  0  0  0  0
  110.2678   67.4931   32.3141 C   0  0  0  0  0  0  0  0  0  0  0  0
  111.0554   65.9002   35.6889 C   0  0  0  0  0  0  0  0  0  0  0  0
  107.5605   68.0459   43.2820 C   0  0  0  0  0  0  0  0  0  0  0  0
  110.9294   66.5956   33.3448 C   0  0  0  0  0  0  0  0  0  0  0  0
  110.0492   69.1413   34.1353 C   0  0  0  0  0  0  0  0  0  0  0  0
  109.7558   67.9899   35.0741 C   0  0  0  0  0  0  0  0  0  0  0  0
  106.8984   62.6968   45.2265 C   0  0  0  0  0  0  0  0  0  0  0  0
  107.2150   70.2326   44.1125 C   0  0  0  0  0  0  0  0  0  0  0  0
  106.8341   62.5785   43.7059 C   0  0  0  0  0  0  0  0  0  0  0  0
  109.8531   68.7240   32.7687 N   0  0  0  0  0  0  0  0  0  0  0  0
  110.5836   66.8242   34.7467 N   0  0  0  0  0  0  0  0  0  0  0  0
  110.2158   67.1675   31.1278 O   0  0  0  0  0  0  0  0  0  0  0  0
  111.7387   64.9109   35.4258 O   0  0  0  0  0  0  0  0  0  0  0  0
  108.2643   67.7319   44.2337 O   0  0  0  0  0  0  0  0  0  0  0  0
  109.7404   66.6843   41.0988 O   0  0  0  0  0  0  0  0  0  0  0  0
  107.2333   67.2056   42.2084 O   0  0  0  0  0  0  0  0  0  0  0  0
  106.9707   69.2599   43.0913 O   0  0  0  0  0  0  0  0  0  0  0  0
  112.3723   66.6353   40.2959 F   0  0  0  0  0  0  0  0  0  0  0  0
  109.3777   62.1607   42.5494 F   0  0  0  0  0  0  0  0  0  0  0  0
  108.5767   65.9928   36.7558 H   0  0  0  0  0  0  0  0  0  0  0  0
  107.9935   66.3408   39.1564 H   0  0  0  0  0  0  0  0  0  0  0  0
  112.7765   66.2587   37.7375 H   0  0  0  0  0  0  0  0  0  0  0  0
  106.0704   65.1556   43.3653 H   0  0  0  0  0  0  0  0  0  0  0  0
  110.5509   64.1913   41.3923 H   0  0  0  0  0  0  0  0  0  0  0  0
  110.6596   65.5572   33.1020 H   0  0  0  0  0  0  0  0  0  0  0  0
  112.0029   66.8255   33.2753 H   0  0  0  0  0  0  0  0  0  0  0  0
  109.3719   69.9779   34.3617 H   0  0  0  0  0  0  0  0  0  0  0  0
  111.0932   69.4605   34.2697 H   0  0  0  0  0  0  0  0  0  0  0  0
  109.9682   68.3040   36.1067 H   0  0  0  0  0  0  0  0  0  0  0  0
  108.6972   67.7105   34.9678 H   0  0  0  0  0  0  0  0  0  0  0  0
  106.4205   61.8176   45.6832 H   0  0  0  0  0  0  0  0  0  0  0  0
  107.9496   62.7501   45.5460 H   0  0  0  0  0  0  0  0  0  0  0  0
  106.3714   63.6079   45.5460 H   0  0  0  0  0  0  0  0  0  0  0  0
  107.0973   69.7641   45.1008 H   0  0  0  0  0  0  0  0  0  0  0  0
  108.2388   70.6218   44.0108 H   0  0  0  0  0  0  0  0  0  0  0  0
  106.4966   71.0594   44.0108 H   0  0  0  0  0  0  0  0  0  0  0  0
  105.7816   62.6350   43.3912 H   0  0  0  0  0  0  0  0  0  0  0  0
  107.2873   61.6166   43.4244 H   0  0  0  0  0  0  0  0  0  0  0  0
  109.3881   69.3674   32.1125 H   0  0  0  0  0  0  0  0  0  0  0  0
  1  2  2  0
  1  6  1  0
  2  8  1  0
  3  6  2  0
  3 11  1  0
  4  7  2  0
  4  9  1  0
  5 10  1  0
  5 12  2  0
  6 14  1  0
  7 12  1  0
  7 21  1  0
  8 11  2  0
  8 27  1  0
  9 10  2  0
  9 28  1  0
 10 27  1  0
 11 30  1  0
 12 31  1  0
 13 16  1  0
 13 22  1  0
 13 24  2  0
 14 23  1  0
 14 25  2  0
 15 26  2  0
 15 28  1  0
 15 29  1  0
 16 23  1  0
 17 18  1  0
 17 22  1  0
 18 23  1  0
 19 21  1  0
 20 29  1  0
  1 32  1  0
  2 33  1  0
  3 34  1  0
  4 35  1  0
  5 36  1  0
 16 37  1  0
 16 38  1  0
 17 39  1  0
 17 40  1  0
 18 41  1  0
 18 42  1  0
 19 43  1  0
 19 44  1  0
 19 45  1  0
 20 46  1  0
 20 47  1  0
 20 48  1  0
 21 49  1  0
 21 50  1  0
 22 51  1  0
M  END
>  <Name>  (166) 
CHEMBL3680372

>  <Comment>  (166) 
 Schrodinger Suite 2021-4.

>  <s_m_entry_id>  (166) 
1249

>  <class_value>  (166) 
0

>  <s_m_Source_Path>  (166) 
C:\Users\vinicius\Desktop

>  <s_m_Source_File>  (166) 
Ligands_Saureus_o.sdf

>  <i_m_Source_File_Index>  (166) 
141

>  <r_lp_tautomer_probability>  (166) 
1

>  <r_epik_Ionization_Penalty>  (166) 
0

>  <r_epik_State_Penalty>  (166) 
0

>  <i_epik_Tot_Q>  (166) 
0

>  <i_f3d_flags>  (166) 
0

>  <s_m_job_name>  (166) 
Saureus_o

>  <FRED Chemgauss4 score>  (166) 
-10.717818

>  <Set>  (166) 
training

>  <HBA count>  (166) 
6

>  <HBD count>  (166) 
1

>  <ExactMolWt>  (166) 
434.12894280000046

>  <NumRotatableBounds>  (166) 
7

>  <FractionCsp3>  (166) 
0.2857142857142857

>  <TPSA>  (166) 
94.17000000000002

>  <LogP_WildmanCrippen>  (166) 
3.0367000000000006

>  <General_Cluster>  (166) 
5

>  <Biological_Cluster>  (166) 
2

>  <Physicochemical_Cluster>  (166) 
4

>  <Structural_Cluster>  (166) 
4

$$$$
CHEMBL42208
     RDKit          3D

 50 53  0  0  0  0  0  0  0  0999 V2000
  109.9613   70.4729   31.2036 C   0  0  0  0  0  0  0  0  0  0  0  0
  110.5216   71.6539   31.6864 C   0  0  0  0  0  0  0  0  0  0  0  0
  109.8548   69.3432   32.0230 C   0  0  0  0  0  0  0  0  0  0  0  0
  110.9922   71.7443   32.9995 C   0  0  0  0  0  0  0  0  0  0  0  0
  110.4213   67.0214   39.4629 C   0  0  0  0  0  0  0  0  0  0  0  0
  112.3576   65.9163   40.2821 C   0  0  0  0  0  0  0  0  0  0  0  0
  110.9496   69.1283   35.5037 C   0  0  0  0  0  0  0  0  0  0  0  0
  110.3225   69.4105   33.3504 C   0  0  0  0  0  0  0  0  0  0  0  0
  111.5755   66.2923   39.2045 C   0  0  0  0  0  0  0  0  0  0  0  0
  110.0758   67.3329   40.7788 C   0  0  0  0  0  0  0  0  0  0  0  0
  110.3734   68.4868   34.4317 C   0  0  0  0  0  0  0  0  0  0  0  0
  110.8793   70.6070   33.8071 C   0  0  0  0  0  0  0  0  0  0  0  0
  110.9254   66.9038   41.7978 C   0  0  0  0  0  0  0  0  0  0  0  0
  109.4170   67.7938   43.5349 C   0  0  0  0  0  0  0  0  0  0  0  0
  111.9567   65.9489   37.8467 C   0  0  0  0  0  0  0  0  0  0  0  0
  111.1230   65.9303   36.7799 C   0  0  0  0  0  0  0  0  0  0  0  0
  111.6302   65.5267   35.4353 C   0  0  0  0  0  0  0  0  0  0  0  0
  108.8932   68.1972   41.0954 C   0  0  0  0  0  0  0  0  0  0  0  0
  108.3389   67.8701   42.4731 C   0  0  0  0  0  0  0  0  0  0  0  0
  111.8744   71.3921   35.9747 C   0  0  0  0  0  0  0  0  0  0  0  0
  111.4128   65.7464   32.9897 C   0  0  0  0  0  0  0  0  0  0  0  0
  109.8893   67.0657   34.4160 C   0  0  0  0  0  0  0  0  0  0  0  0
  112.0656   66.2101   41.5689 N   0  0  0  0  0  0  0  0  0  0  0  0
  111.2511   70.4067   35.1174 N   0  0  0  0  0  0  0  0  0  0  0  0
  110.6100   67.2276   43.1313 N   0  0  0  0  0  0  0  0  0  0  0  0
  110.9944   66.1122   34.3368 N   0  0  0  0  0  0  0  0  0  0  0  0
  109.1940   68.1309   44.6976 O   0  0  0  0  0  0  0  0  0  0  0  0
  112.5417   64.7028   35.3473 O   0  0  0  0  0  0  0  0  0  0  0  0
  109.5984   70.4279   30.1662 H   0  0  0  0  0  0  0  0  0  0  0  0
  110.5947   72.5288   31.0237 H   0  0  0  0  0  0  0  0  0  0  0  0
  109.4114   68.4141   31.6354 H   0  0  0  0  0  0  0  0  0  0  0  0
  111.4349   72.6750   33.3838 H   0  0  0  0  0  0  0  0  0  0  0  0
  109.7811   67.3525   38.6320 H   0  0  0  0  0  0  0  0  0  0  0  0
  113.2740   65.3426   40.0791 H   0  0  0  0  0  0  0  0  0  0  0  0
  111.1353   68.6913   36.4959 H   0  0  0  0  0  0  0  0  0  0  0  0
  113.0091   65.6819   37.6699 H   0  0  0  0  0  0  0  0  0  0  0  0
  110.0675   66.2138   36.9047 H   0  0  0  0  0  0  0  0  0  0  0  0
  109.2014   69.2529   41.0720 H   0  0  0  0  0  0  0  0  0  0  0  0
  108.1094   68.0105   40.3465 H   0  0  0  0  0  0  0  0  0  0  0  0
  107.8244   66.8991   42.4238 H   0  0  0  0  0  0  0  0  0  0  0  0
  107.6516   68.6812   42.7555 H   0  0  0  0  0  0  0  0  0  0  0  0
  111.7039   71.1226   37.0274 H   0  0  0  0  0  0  0  0  0  0  0  0
  112.9556   71.4212   35.7741 H   0  0  0  0  0  0  0  0  0  0  0  0
  111.4375   72.3815   35.7741 H   0  0  0  0  0  0  0  0  0  0  0  0
  112.2398   65.0233   33.0463 H   0  0  0  0  0  0  0  0  0  0  0  0
  110.5660   65.2937   32.4530 H   0  0  0  0  0  0  0  0  0  0  0  0
  111.7484   66.6460   32.4530 H   0  0  0  0  0  0  0  0  0  0  0  0
  109.3201   66.8741   35.3376 H   0  0  0  0  0  0  0  0  0  0  0  0
  109.2594   66.9309   33.5244 H   0  0  0  0  0  0  0  0  0  0  0  0
  111.3164   67.0288   43.8541 H   0  0  0  0  0  0  0  0  0  0  0  0
  1  2  2  0
  1  3  1  0
  2  4  1  0
  3  8  2  0
  4 12  2  0
  5  9  2  0
  5 10  1  0
  6  9  1  0
  6 23  2  0
  7 11  2  0
  7 24  1  0
  8 11  1  0
  8 12  1  0
  9 15  1  0
 10 13  2  0
 10 18  1  0
 11 22  1  0
 12 24  1  0
 13 23  1  0
 13 25  1  0
 14 19  1  0
 14 25  1  0
 14 27  2  0
 15 16  2  0
 16 17  1  0
 17 26  1  0
 17 28  2  0
 18 19  1  0
 20 24  1  0
 21 26  1  0
 22 26  1  0
  1 29  1  0
  2 30  1  0
  3 31  1  0
  4 32  1  0
  5 33  1  0
  6 34  1  0
  7 35  1  0
 15 36  1  0
 16 37  1  0
 18 38  1  0
 18 39  1  0
 19 40  1  0
 19 41  1  0
 20 42  1  0
 20 43  1  0
 20 44  1  0
 21 45  1  0
 21 46  1  0
 21 47  1  0
 22 48  1  0
 22 49  1  0
 25 50  1  0
M  END
>  <Name>  (167) 
CHEMBL42208

>  <Comment>  (167) 
 Schrodinger Suite 2021-4.

>  <s_m_entry_id>  (167) 
1119

>  <class_value>  (167) 
1

>  <s_m_Source_Path>  (167) 
C:\Users\vinicius\Desktop

>  <s_m_Source_File>  (167) 
Ligands_Saureus_o.sdf

>  <i_m_Source_File_Index>  (167) 
37

>  <r_lp_tautomer_probability>  (167) 
1

>  <r_epik_Ionization_Penalty>  (167) 
0.0002

>  <r_epik_State_Penalty>  (167) 
0

>  <i_epik_Tot_Q>  (167) 
0

>  <i_f3d_flags>  (167) 
0

>  <s_m_job_name>  (167) 
Saureus_o

>  <FRED Chemgauss4 score>  (167) 
-16.253075

>  <Set>  (167) 
training

>  <HBA count>  (167) 
4

>  <HBD count>  (167) 
1

>  <ExactMolWt>  (167) 
374.17427594400067

>  <NumRotatableBounds>  (167) 
6

>  <FractionCsp3>  (167) 
0.22727272727272727

>  <TPSA>  (167) 
67.23

>  <LogP_WildmanCrippen>  (167) 
3.129800000000002

>  <General_Cluster>  (167) 
1

>  <Biological_Cluster>  (167) 
1

>  <Physicochemical_Cluster>  (167) 
1

>  <Structural_Cluster>  (167) 
2

$$$$
CHEMBL4216771
     RDKit          3D

 42 45  0  0  1  0  0  0  0  0999 V2000
  111.6690   72.1391   35.2788 C   0  0  0  0  0  0  0  0  0  0  0  0
  112.3126   72.5204   34.1016 C   0  0  0  0  0  0  0  0  0  0  0  0
  111.3156   64.7136   38.3763 C   0  0  0  0  0  0  0  0  0  0  0  0
  110.7051   71.1311   35.2518 C   0  0  0  0  0  0  0  0  0  0  0  0
  111.1005   64.3798   39.7155 C   0  0  0  0  0  0  0  0  0  0  0  0
  111.9924   71.8939   32.8972 C   0  0  0  0  0  0  0  0  0  0  0  0
  110.6251   67.0108   38.7934 C   0  0  0  0  0  0  0  0  0  0  0  0
  111.0794   66.0216   37.9178 C   0  0  0  0  0  0  0  0  0  0  0  0
  110.3849   70.5046   34.0474 C   0  0  0  0  0  0  0  0  0  0  0  0
  110.6519   65.3749   40.5594 C   0  0  0  0  0  0  0  0  0  0  0  0
  110.4207   66.6552   40.1108 C   0  0  0  0  0  0  0  0  0  0  0  0
  111.0285   70.8859   32.8701 C   0  0  0  0  0  0  0  0  0  0  0  0
  109.9003   68.1182   33.5020 C   0  0  0  0  0  0  0  0  0  0  0  0
  111.0806   65.2293   35.4447 C   0  0  0  0  0  0  0  0  0  0  0  0
  110.9685   65.9641   34.1184 C   0  0  0  0  0  0  0  0  0  0  0  0
  110.4188   67.4733   35.9038 C   0  0  0  0  0  0  0  0  0  0  0  0
  109.9657   66.5742   42.2246 C   0  0  0  0  0  0  0  0  0  0  0  0
  111.3186   66.3592   36.4623 C   0  0  1  0  0  0  0  0  0  0  0  0
  109.3481   69.4211   34.0223 C   0  0  0  0  0  0  0  0  0  0  0  0
  110.3967   67.2542   34.4615 N   0  0  0  0  0  0  0  0  0  0  0  0
  109.8974   67.8780   32.2935 O   0  0  0  0  0  0  0  0  0  0  0  0
  110.3891   65.2373   41.8875 O   0  0  0  0  0  0  0  0  0  0  0  0
  109.9839   67.4793   41.1018 O   0  0  0  0  0  0  0  0  0  0  0  0
  110.7276   70.2895   31.7081 F   0  0  0  0  0  0  0  0  0  0  0  0
  111.9215   72.6333   36.2285 H   0  0  0  0  0  0  0  0  0  0  0  0
  113.0727   73.3152   34.1230 H   0  0  0  0  0  0  0  0  0  0  0  0
  111.6730   63.9461   37.6740 H   0  0  0  0  0  0  0  0  0  0  0  0
  110.1976   70.8303   36.1802 H   0  0  0  0  0  0  0  0  0  0  0  0
  111.2824   63.3595   40.0843 H   0  0  0  0  0  0  0  0  0  0  0  0
  112.5000   72.1947   31.9688 H   0  0  0  0  0  0  0  0  0  0  0  0
  110.4370   68.0370   38.4449 H   0  0  0  0  0  0  0  0  0  0  0  0
  110.1524   64.6845   35.6720 H   0  0  0  0  0  0  0  0  0  0  0  0
  111.8795   64.4731   35.4494 H   0  0  0  0  0  0  0  0  0  0  0  0
  111.9599   66.0887   33.6585 H   0  0  0  0  0  0  0  0  0  0  0  0
  110.3542   65.4163   33.3887 H   0  0  0  0  0  0  0  0  0  0  0  0
  109.4043   67.3968   36.3220 H   0  0  0  0  0  0  0  0  0  0  0  0
  110.7921   68.4748   36.1637 H   0  0  0  0  0  0  0  0  0  0  0  0
  108.9395   66.5266   42.6179 H   0  0  0  0  0  0  0  0  0  0  0  0
  110.6772   66.9633   42.9678 H   0  0  0  0  0  0  0  0  0  0  0  0
  112.3811   66.6342   36.5364 H   0  0  0  0  0  0  0  0  0  0  0  0
  108.9742   69.2645   35.0449 H   0  0  0  0  0  0  0  0  0  0  0  0
  108.5413   69.7406   33.3463 H   0  0  0  0  0  0  0  0  0  0  0  0
  1  2  2  0
  1  4  1  0
  2  6  1  0
  3  5  2  0
  3  8  1  0
  4  9  2  0
  5 10  1  0
  6 12  2  0
  7  8  2  0
  7 11  1  0
  8 18  1  0
  9 12  1  0
  9 19  1  0
 10 11  2  0
 10 22  1  0
 11 23  1  0
 12 24  1  0
 13 19  1  0
 13 20  1  0
 13 21  2  0
 14 15  1  0
 14 18  1  0
 15 20  1  0
 16 18  1  0
 16 20  1  0
 17 22  1  0
 17 23  1  0
  1 25  1  0
  2 26  1  0
  3 27  1  0
  4 28  1  0
  5 29  1  0
  6 30  1  0
  7 31  1  0
 14 32  1  0
 14 33  1  0
 15 34  1  0
 15 35  1  0
 16 36  1  0
 16 37  1  0
 17 38  1  0
 17 39  1  0
 18 40  1  1
 19 41  1  0
 19 42  1  0
M  END
>  <Name>  (168) 
CHEMBL4216771

>  <Comment>  (168) 
 Schrodinger Suite 2021-4.

>  <s_m_entry_id>  (168) 
1453

>  <s_m_Source_Path>  (168) 
C:\Users\vinicius\Desktop

>  <s_m_Source_File>  (168) 
Ligands_Saureus_failomega.smi

>  <i_m_Source_File_Index>  (168) 
15

>  <r_lp_tautomer_probability>  (168) 
1

>  <r_epik_Ionization_Penalty>  (168) 
0

>  <r_epik_State_Penalty>  (168) 
0

>  <i_epik_Tot_Q>  (168) 
0

>  <i_f3d_flags>  (168) 
0

>  <s_m_job_name>  (168) 
Saureus_fail

>  <class_value>  (168) 
0

>  <FRED Chemgauss4 score>  (168) 
-13.473730

>  <Set>  (168) 
training

>  <HBA count>  (168) 
3

>  <HBD count>  (168) 
0

>  <ExactMolWt>  (168) 
327.12707165600045

>  <NumRotatableBounds>  (168) 
3

>  <FractionCsp3>  (168) 
0.3157894736842105

>  <TPSA>  (168) 
38.77

>  <LogP_WildmanCrippen>  (168) 
3.1130000000000013

>  <General_Cluster>  (168) 
2

>  <Biological_Cluster>  (168) 
2

>  <Physicochemical_Cluster>  (168) 
3

>  <Structural_Cluster>  (168) 
3

$$$$
CHEMBL2178291
     RDKit          3D

 29 30  0  0  0  0  0  0  0  0999 V2000
  110.3454   70.1199   33.8362 C   0  0  0  0  0  0  0  0  0  0  0  0
  109.9759   69.0631   34.6607 C   0  0  0  0  0  0  0  0  0  0  0  0
  112.2126   65.5384   37.3772 C   0  0  0  0  0  0  0  0  0  0  0  0
  109.9166   67.1219   37.3145 C   0  0  0  0  0  0  0  0  0  0  0  0
  110.7791   69.8217   32.5545 C   0  0  0  0  0  0  0  0  0  0  0  0
  111.7571   66.1528   38.5436 C   0  0  0  0  0  0  0  0  0  0  0  0
  110.0503   67.7586   34.1850 C   0  0  0  0  0  0  0  0  0  0  0  0
  111.5201   65.7158   36.1793 C   0  0  0  0  0  0  0  0  0  0  0  0
  110.3722   66.5075   36.1480 C   0  0  0  0  0  0  0  0  0  0  0  0
  110.6091   66.9445   38.5123 C   0  0  0  0  0  0  0  0  0  0  0  0
  110.4970   67.5661   32.8876 C   0  0  0  0  0  0  0  0  0  0  0  0
  111.6228   65.3602   40.9185 C   0  0  0  0  0  0  0  0  0  0  0  0
  112.4994   65.9614   39.8228 C   0  0  0  0  0  0  0  0  0  0  0  0
  110.8648   68.5675   32.0572 N   0  0  0  0  0  0  0  0  0  0  0  0
  111.9744   65.1105   35.0466 O   0  0  0  0  0  0  0  0  0  0  0  0
  109.6873   66.6885   34.9845 O   0  0  0  0  0  0  0  0  0  0  0  0
  110.1637   67.5390   39.6280 F   0  0  0  0  0  0  0  0  0  0  0  0
  110.5748   66.3137   32.4099 F   0  0  0  0  0  0  0  0  0  0  0  0
  110.2950   71.1601   34.1903 H   0  0  0  0  0  0  0  0  0  0  0  0
  109.6261   69.2582   35.6852 H   0  0  0  0  0  0  0  0  0  0  0  0
  113.1179   64.9140   37.4019 H   0  0  0  0  0  0  0  0  0  0  0  0
  109.0113   67.7463   37.2898 H   0  0  0  0  0  0  0  0  0  0  0  0
  111.0717   70.6570   31.9013 H   0  0  0  0  0  0  0  0  0  0  0  0
  112.0261   65.6368   41.9038 H   0  0  0  0  0  0  0  0  0  0  0  0
  110.5973   65.7460   40.8206 H   0  0  0  0  0  0  0  0  0  0  0  0
  111.6133   64.2646   40.8206 H   0  0  0  0  0  0  0  0  0  0  0  0
  113.3496   65.2876   39.6407 H   0  0  0  0  0  0  0  0  0  0  0  0
  112.8363   66.9504   40.1669 H   0  0  0  0  0  0  0  0  0  0  0  0
  111.4891   65.2310   34.1922 H   0  0  0  0  0  0  0  0  0  0  0  0
  1  2  2  0
  1  5  1  0
  2  7  1  0
  3  6  2  0
  3  8  1  0
  4  9  1  0
  4 10  2  0
  5 14  2  0
  6 10  1  0
  6 13  1  0
  7 11  2  0
  7 16  1  0
  8  9  2  0
  8 15  1  0
  9 16  1  0
 10 17  1  0
 11 14  1  0
 11 18  1  0
 12 13  1  0
  1 19  1  0
  2 20  1  0
  3 21  1  0
  4 22  1  0
  5 23  1  0
 12 24  1  0
 12 25  1  0
 12 26  1  0
 13 27  1  0
 13 28  1  0
 15 29  1  0
M  END
>  <Name>  (169) 
CHEMBL2178291

>  <Comment>  (169) 
 Schrodinger Suite 2021-4.

>  <s_m_entry_id>  (169) 
1078

>  <class_value>  (169) 
1

>  <s_m_Source_Path>  (169) 
C:\Users\vinicius\Desktop

>  <s_m_Source_File>  (169) 
Ligands_Saureus_o.sdf

>  <i_m_Source_File_Index>  (169) 
5

>  <r_lp_tautomer_probability>  (169) 
0.999999999999776

>  <r_epik_Ionization_Penalty>  (169) 
0.001

>  <r_epik_State_Penalty>  (169) 
0.0007

>  <i_epik_Tot_Q>  (169) 
0

>  <i_f3d_flags>  (169) 
0

>  <s_m_job_name>  (169) 
Saureus_o

>  <FRED Chemgauss4 score>  (169) 
-12.868681

>  <Set>  (169) 
training

>  <HBA count>  (169) 
3

>  <HBD count>  (169) 
1

>  <ExactMolWt>  (169) 
251.075785032

>  <NumRotatableBounds>  (169) 
5

>  <FractionCsp3>  (169) 
0.15384615384615385

>  <TPSA>  (169) 
42.35000000000001

>  <LogP_WildmanCrippen>  (169) 
3.420100000000002

>  <General_Cluster>  (169) 
4

>  <Biological_Cluster>  (169) 
1

>  <Physicochemical_Cluster>  (169) 
3

>  <Structural_Cluster>  (169) 
1

$$$$
CHEMBL3322716
     RDKit          3D

 46 50  0  0  0  0  0  0  0  0999 V2000
  109.7581   69.4245   31.6558 C   0  0  0  0  0  0  0  0  0  0  0  0
  109.5938   68.0660   31.4086 C   0  0  0  0  0  0  0  0  0  0  0  0
  110.0717   69.8801   32.9396 C   0  0  0  0  0  0  0  0  0  0  0  0
  109.7378   67.1283   32.4343 C   0  0  0  0  0  0  0  0  0  0  0  0
  108.0648   63.6184   42.7531 C   0  0  0  0  0  0  0  0  0  0  0  0
  108.1927   65.8962   43.4139 C   0  0  0  0  0  0  0  0  0  0  0  0
  108.6960   64.8525   42.6578 C   0  0  0  0  0  0  0  0  0  0  0  0
  106.9728   63.4602   43.6077 C   0  0  0  0  0  0  0  0  0  0  0  0
  110.2229   68.9537   33.9941 C   0  0  0  0  0  0  0  0  0  0  0  0
  110.0527   67.5930   33.7214 C   0  0  0  0  0  0  0  0  0  0  0  0
  106.5434   64.5705   44.3336 C   0  0  0  0  0  0  0  0  0  0  0  0
  110.5921   68.1508   36.0155 C   0  0  0  0  0  0  0  0  0  0  0  0
  104.8218   63.2405   45.4965 C   0  0  0  0  0  0  0  0  0  0  0  0
  109.8373   65.0449   41.7819 C   0  0  0  0  0  0  0  0  0  0  0  0
  110.2871   66.2343   41.3169 C   0  0  0  0  0  0  0  0  0  0  0  0
  111.4477   66.3786   40.4195 C   0  0  0  0  0  0  0  0  0  0  0  0
  106.2049   62.1747   43.6691 C   0  0  0  0  0  0  0  0  0  0  0  0
  105.5553   61.9986   45.0326 C   0  0  0  0  0  0  0  0  0  0  0  0
  112.0600   67.2563   38.0990 C   0  0  0  0  0  0  0  0  0  0  0  0
  109.9832   67.4241   38.5453 C   0  0  0  0  0  0  0  0  0  0  0  0
  110.9266   68.1661   37.5656 C   0  0  0  0  0  0  0  0  0  0  0  0
  107.1295   65.7877   44.2417 N   0  0  0  0  0  0  0  0  0  0  0  0
  110.5311   69.2573   35.3122 N   0  0  0  0  0  0  0  0  0  0  0  0
  105.4283   64.4409   45.1836 N   0  0  0  0  0  0  0  0  0  0  0  0
  111.1818   66.9598   39.2141 N   0  0  0  0  0  0  0  0  0  0  0  0
  103.8057   63.1623   46.1869 O   0  0  0  0  0  0  0  0  0  0  0  0
  112.5538   65.9843   40.7802 O   0  0  0  0  0  0  0  0  0  0  0  0
  110.2911   66.6931   35.1727 S   0  0  0  0  0  0  0  0  0  0  0  0
  109.6403   70.1466   30.8344 H   0  0  0  0  0  0  0  0  0  0  0  0
  109.3472   67.7252   30.3922 H   0  0  0  0  0  0  0  0  0  0  0  0
  110.2002   70.9563   33.1275 H   0  0  0  0  0  0  0  0  0  0  0  0
  109.6078   66.0537   32.2386 H   0  0  0  0  0  0  0  0  0  0  0  0
  108.4251   62.7676   42.1561 H   0  0  0  0  0  0  0  0  0  0  0  0
  108.6885   66.8751   43.3366 H   0  0  0  0  0  0  0  0  0  0  0  0
  110.3855   64.1444   41.4680 H   0  0  0  0  0  0  0  0  0  0  0  0
  109.7555   67.1461   41.6268 H   0  0  0  0  0  0  0  0  0  0  0  0
  105.4229   62.1844   42.8956 H   0  0  0  0  0  0  0  0  0  0  0  0
  106.9007   61.3398   43.4995 H   0  0  0  0  0  0  0  0  0  0  0  0
  106.3382   61.7576   45.7668 H   0  0  0  0  0  0  0  0  0  0  0  0
  104.8155   61.1892   44.9457 H   0  0  0  0  0  0  0  0  0  0  0  0
  112.3008   66.3948   37.4588 H   0  0  0  0  0  0  0  0  0  0  0  0
  113.0868   67.6234   38.2435 H   0  0  0  0  0  0  0  0  0  0  0  0
  109.3397   68.0784   39.1518 H   0  0  0  0  0  0  0  0  0  0  0  0
  109.2021   66.7328   38.1960 H   0  0  0  0  0  0  0  0  0  0  0  0
  111.0160   69.2625   37.5662 H   0  0  0  0  0  0  0  0  0  0  0  0
  105.0390   65.2989   45.5998 H   0  0  0  0  0  0  0  0  0  0  0  0
  1  2  2  0
  1  3  1  0
  2  4  1  0
  3  9  2  0
  4 10  2  0
  5  7  2  0
  5  8  1  0
  6  7  1  0
  6 22  2  0
  7 14  1  0
  8 11  2  0
  8 17  1  0
  9 10  1  0
  9 23  1  0
 10 28  1  0
 11 22  1  0
 11 24  1  0
 12 21  1  0
 12 23  2  0
 12 28  1  0
 13 18  1  0
 13 24  1  0
 13 26  2  0
 14 15  2  0
 15 16  1  0
 16 25  1  0
 16 27  2  0
 17 18  1  0
 19 21  1  0
 19 25  1  0
 20 21  1  0
 20 25  1  0
  1 29  1  0
  2 30  1  0
  3 31  1  0
  4 32  1  0
  5 33  1  0
  6 34  1  0
 14 35  1  0
 15 36  1  0
 17 37  1  0
 17 38  1  0
 18 39  1  0
 18 40  1  0
 19 41  1  0
 19 42  1  0
 20 43  1  0
 20 44  1  0
 21 45  1  0
 24 46  1  0
M  END
>  <Name>  (170) 
CHEMBL3322716

>  <Comment>  (170) 
 Schrodinger Suite 2021-4.

>  <s_m_entry_id>  (170) 
1159

>  <class_value>  (170) 
1

>  <s_m_Source_Path>  (170) 
C:\Users\vinicius\Desktop

>  <s_m_Source_File>  (170) 
Ligands_Saureus_o.sdf

>  <i_m_Source_File_Index>  (170) 
67

>  <r_lp_tautomer_probability>  (170) 
1

>  <r_epik_Ionization_Penalty>  (170) 
0.0002

>  <r_epik_State_Penalty>  (170) 
0

>  <i_epik_Tot_Q>  (170) 
0

>  <i_f3d_flags>  (170) 
0

>  <s_m_job_name>  (170) 
Saureus_o

>  <FRED Chemgauss4 score>  (170) 
-13.118216

>  <Set>  (170) 
training

>  <HBA count>  (170) 
5

>  <HBD count>  (170) 
1

>  <ExactMolWt>  (170) 
390.1150468160006

>  <NumRotatableBounds>  (170) 
3

>  <FractionCsp3>  (170) 
0.23809523809523808

>  <TPSA>  (170) 
75.19

>  <LogP_WildmanCrippen>  (170) 
3.215200000000002

>  <General_Cluster>  (170) 
1

>  <Biological_Cluster>  (170) 
1

>  <Physicochemical_Cluster>  (170) 
1

>  <Structural_Cluster>  (170) 
2

$$$$
CHEMBL3676400
     RDKit          3D

 47 50  0  0  1  0  0  0  0  0999 V2000
  111.3017   70.4700   37.5120 C   0  0  0  0  0  0  0  0  0  0  0  0
  112.2124   69.7573   36.7322 C   0  0  0  0  0  0  0  0  0  0  0  0
  109.9318   70.2657   37.3464 C   0  0  0  0  0  0  0  0  0  0  0  0
  111.7533   68.8403   35.7867 C   0  0  0  0  0  0  0  0  0  0  0  0
  109.4727   69.3487   36.4009 C   0  0  0  0  0  0  0  0  0  0  0  0
  110.0946   67.0388   39.4065 C   0  0  0  0  0  0  0  0  0  0  0  0
  112.2558   66.3473   40.1085 C   0  0  0  0  0  0  0  0  0  0  0  0
  111.3450   66.5267   39.0826 C   0  0  0  0  0  0  0  0  0  0  0  0
  110.3834   68.6360   35.6210 C   0  0  0  0  0  0  0  0  0  0  0  0
  109.7876   67.3347   40.7354 C   0  0  0  0  0  0  0  0  0  0  0  0
  110.7706   67.1134   41.6994 C   0  0  0  0  0  0  0  0  0  0  0  0
  109.2442   67.7787   43.5194 C   0  0  0  0  0  0  0  0  0  0  0  0
  111.6901   66.2044   37.7100 C   0  0  0  0  0  0  0  0  0  0  0  0
  110.8118   65.9855   36.7031 C   0  0  0  0  0  0  0  0  0  0  0  0
  111.2120   65.6503   35.3218 C   0  0  0  0  0  0  0  0  0  0  0  0
  108.4879   67.9767   41.1158 C   0  0  0  0  0  0  0  0  0  0  0  0
  108.1009   67.6096   42.5396 C   0  0  0  0  0  0  0  0  0  0  0  0
  109.9449   67.1824   32.2340 C   0  0  0  0  0  0  0  0  0  0  0  0
  109.6631   68.3017   33.2267 C   0  0  0  0  0  0  0  0  0  0  0  0
  111.0658   66.3985   32.8959 C   0  0  0  0  0  0  0  0  0  0  0  0
  109.8847   67.6416   34.5954 C   0  0  1  0  0  0  0  0  0  0  0  0
  112.0025   66.6347   41.4049 N   0  0  0  0  0  0  0  0  0  0  0  0
  110.4919   67.4277   43.0433 N   0  0  0  0  0  0  0  0  0  0  0  0
  110.8067   66.5273   34.3284 N   0  0  0  0  0  0  0  0  0  0  0  0
  109.0419   68.1162   44.6857 O   0  0  0  0  0  0  0  0  0  0  0  0
  111.8592   64.6213   35.1298 O   0  0  0  0  0  0  0  0  0  0  0  0
  111.6638   71.1932   38.2576 H   0  0  0  0  0  0  0  0  0  0  0  0
  113.2927   69.9184   36.8628 H   0  0  0  0  0  0  0  0  0  0  0  0
  109.2136   70.8277   37.9614 H   0  0  0  0  0  0  0  0  0  0  0  0
  112.4715   68.2782   35.1717 H   0  0  0  0  0  0  0  0  0  0  0  0
  108.3924   69.1876   36.2703 H   0  0  0  0  0  0  0  0  0  0  0  0
  109.3481   67.2107   38.6170 H   0  0  0  0  0  0  0  0  0  0  0  0
  113.2477   65.9459   39.8534 H   0  0  0  0  0  0  0  0  0  0  0  0
  112.7603   66.1315   37.4662 H   0  0  0  0  0  0  0  0  0  0  0  0
  109.7375   66.0618   36.9271 H   0  0  0  0  0  0  0  0  0  0  0  0
  108.5896   69.0694   41.0400 H   0  0  0  0  0  0  0  0  0  0  0  0
  107.7038   67.6169   40.4333 H   0  0  0  0  0  0  0  0  0  0  0  0
  107.7761   66.5588   42.5560 H   0  0  0  0  0  0  0  0  0  0  0  0
  107.2943   68.2901   42.8502 H   0  0  0  0  0  0  0  0  0  0  0  0
  109.0555   66.5515   32.0893 H   0  0  0  0  0  0  0  0  0  0  0  0
  110.2127   67.5531   31.2336 H   0  0  0  0  0  0  0  0  0  0  0  0
  110.3588   69.1408   33.0791 H   0  0  0  0  0  0  0  0  0  0  0  0
  108.6534   68.7239   33.1165 H   0  0  0  0  0  0  0  0  0  0  0  0
  111.0357   65.3427   32.5888 H   0  0  0  0  0  0  0  0  0  0  0  0
  112.0609   66.7743   32.6156 H   0  0  0  0  0  0  0  0  0  0  0  0
  108.9554   67.2647   35.0474 H   0  0  0  0  0  0  0  0  0  0  0  0
  111.2709   67.3935   43.7163 H   0  0  0  0  0  0  0  0  0  0  0  0
  1  2  2  0
  1  3  1  0
  2  4  1  0
  3  5  2  0
  4  9  2  0
  5  9  1  0
  6  8  2  0
  6 10  1  0
  7  8  1  0
  7 22  2  0
  8 13  1  0
  9 21  1  0
 10 11  2  0
 10 16  1  0
 11 22  1  0
 11 23  1  0
 12 17  1  0
 12 23  1  0
 12 25  2  0
 13 14  2  0
 14 15  1  0
 15 24  1  0
 15 26  2  0
 16 17  1  0
 18 19  1  0
 18 20  1  0
 19 21  1  0
 20 24  1  0
 21 24  1  0
  1 27  1  0
  2 28  1  0
  3 29  1  0
  4 30  1  0
  5 31  1  0
  6 32  1  0
  7 33  1  0
 13 34  1  0
 14 35  1  0
 16 36  1  0
 16 37  1  0
 17 38  1  0
 17 39  1  0
 18 40  1  0
 18 41  1  0
 19 42  1  0
 19 43  1  0
 20 44  1  0
 20 45  1  0
 21 46  1  1
 23 47  1  0
M  END
>  <Name>  (171) 
CHEMBL3676400

>  <Comment>  (171) 
 Schrodinger Suite 2021-4.

>  <s_m_entry_id>  (171) 
1474

>  <s_m_Source_Path>  (171) 
C:\Users\vinicius\Desktop

>  <s_m_Source_File>  (171) 
Ligands_Saureus_failomega.smi

>  <i_m_Source_File_Index>  (171) 
26

>  <r_lp_tautomer_probability>  (171) 
1

>  <r_epik_Ionization_Penalty>  (171) 
0.0002

>  <r_epik_State_Penalty>  (171) 
0

>  <i_epik_Tot_Q>  (171) 
0

>  <i_f3d_flags>  (171) 
0

>  <s_m_job_name>  (171) 
Saureus_fail

>  <class_value>  (171) 
0

>  <FRED Chemgauss4 score>  (171) 
-13.771318

>  <Set>  (171) 
training

>  <HBA count>  (171) 
3

>  <HBD count>  (171) 
1

>  <ExactMolWt>  (171) 
347.1633769120006

>  <NumRotatableBounds>  (171) 
3

>  <FractionCsp3>  (171) 
0.2857142857142857

>  <TPSA>  (171) 
62.300000000000004

>  <LogP_WildmanCrippen>  (171) 
3.3432000000000013

>  <General_Cluster>  (171) 
2

>  <Biological_Cluster>  (171) 
2

>  <Physicochemical_Cluster>  (171) 
2

>  <Structural_Cluster>  (171) 
3

$$$$
CHEMBL3676415
     RDKit          3D

 42 44  0  0  0  0  0  0  0  0999 V2000
  109.9766   68.0739   34.6255 C   0  0  0  0  0  0  0  0  0  0  0  0
  109.7343   68.9328   33.5577 C   0  0  0  0  0  0  0  0  0  0  0  0
  107.6211   66.5565   44.8721 C   0  0  0  0  0  0  0  0  0  0  0  0
  106.3532   65.1383   43.4004 C   0  0  0  0  0  0  0  0  0  0  0  0
  106.4588   66.7469   45.6020 C   0  0  0  0  0  0  0  0  0  0  0  0
  105.2478   65.3920   44.1963 C   0  0  0  0  0  0  0  0  0  0  0  0
  111.0759   66.5671   33.1279 C   0  0  0  0  0  0  0  0  0  0  0  0
  110.6542   66.8772   34.4130 C   0  0  0  0  0  0  0  0  0  0  0  0
  107.5588   65.7354   43.7517 C   0  0  0  0  0  0  0  0  0  0  0  0
  110.1793   68.5707   32.2943 C   0  0  0  0  0  0  0  0  0  0  0  0
  110.9211   65.9533   35.5290 C   0  0  0  0  0  0  0  0  0  0  0  0
  110.9137   66.2911   36.8272 C   0  0  0  0  0  0  0  0  0  0  0  0
  111.1969   65.3312   37.9097 C   0  0  0  0  0  0  0  0  0  0  0  0
  109.6592   66.6574   39.4570 C   0  0  0  0  0  0  0  0  0  0  0  0
  110.5042   64.9174   40.3760 C   0  0  0  0  0  0  0  0  0  0  0  0
  109.7870   66.1687   40.9071 C   0  0  0  0  0  0  0  0  0  0  0  0
  108.7874   65.4952   42.9246 C   0  0  0  0  0  0  0  0  0  0  0  0
  105.2696   66.1839   45.2919 N   0  0  0  0  0  0  0  0  0  0  0  0
  110.8294   67.4124   32.1177 N   0  0  0  0  0  4  0  0  0  0  0  0
  110.5673   65.5876   39.0934 N   0  0  0  0  0  0  0  0  0  0  0  0
  109.9656   69.3956   31.1815 N   0  0  0  0  0  0  0  0  0  0  0  0
  111.9547   64.3857   37.7078 O   0  0  0  0  0  0  0  0  0  0  0  0
  108.5490   65.9413   41.6030 O   0  0  0  0  0  0  0  0  0  0  0  0
  109.6330   68.3405   35.6359 H   0  0  0  0  0  0  0  0  0  0  0  0
  109.1997   69.8816   33.7124 H   0  0  0  0  0  0  0  0  0  0  0  0
  108.5634   67.0397   45.1696 H   0  0  0  0  0  0  0  0  0  0  0  0
  106.2794   64.4851   42.5184 H   0  0  0  0  0  0  0  0  0  0  0  0
  106.5067   67.3963   46.4886 H   0  0  0  0  0  0  0  0  0  0  0  0
  104.2935   64.9200   43.9197 H   0  0  0  0  0  0  0  0  0  0  0  0
  111.6132   65.6262   32.9381 H   0  0  0  0  0  0  0  0  0  0  0  0
  111.1436   64.9056   35.2784 H   0  0  0  0  0  0  0  0  0  0  0  0
  110.6857   67.3329   37.0966 H   0  0  0  0  0  0  0  0  0  0  0  0
  108.6497   66.5695   39.0290 H   0  0  0  0  0  0  0  0  0  0  0  0
  109.8508   67.7037   39.1766 H   0  0  0  0  0  0  0  0  0  0  0  0
  111.4816   64.7160   40.8386 H   0  0  0  0  0  0  0  0  0  0  0  0
  110.0756   63.9103   40.4859 H   0  0  0  0  0  0  0  0  0  0  0  0
  110.2466   66.7984   41.6832 H   0  0  0  0  0  0  0  0  0  0  0  0
  109.6348   66.0500   43.3536 H   0  0  0  0  0  0  0  0  0  0  0  0
  109.0252   64.4212   42.9165 H   0  0  0  0  0  0  0  0  0  0  0  0
  111.1512   67.1628   31.1716 H   0  0  0  0  0  0  0  0  0  0  0  0
  110.3050   69.1061   30.2531 H   0  0  0  0  0  0  0  0  0  0  0  0
  109.4692   70.2913   31.2921 H   0  0  0  0  0  0  0  0  0  0  0  0
  1  2  2  0
  1  8  1  0
  2 10  1  0
  3  5  2  0
  3  9  1  0
  4  6  1  0
  4  9  2  0
  5 18  1  0
  6 18  2  0
  7  8  2  0
  7 19  1  0
  8 11  1  0
  9 17  1  0
 10 19  2  0
 10 21  1  0
 11 12  2  0
 12 13  1  0
 13 20  1  0
 13 22  2  0
 14 16  1  0
 14 20  1  0
 15 16  1  0
 15 20  1  0
 16 23  1  0
 17 23  1  0
  1 24  1  0
  2 25  1  0
  3 26  1  0
  4 27  1  0
  5 28  1  0
  6 29  1  0
  7 30  1  0
 11 31  1  0
 12 32  1  0
 14 33  1  0
 14 34  1  0
 15 35  1  0
 15 36  1  0
 16 37  1  0
 17 38  1  0
 17 39  1  0
 19 40  1  0
 21 41  1  0
 21 42  1  0
M  CHG  1  19   1
M  END
>  <Name>  (172) 
CHEMBL3676415

>  <Comment>  (172) 
 Schrodinger Suite 2021-4.

>  <s_m_entry_id>  (172) 
1211

>  <class_value>  (172) 
0

>  <s_m_Source_Path>  (172) 
C:\Users\vinicius\Desktop

>  <s_m_Source_File>  (172) 
Ligands_Saureus_o.sdf

>  <i_m_Source_File_Index>  (172) 
108

>  <r_epik_Ionization_Penalty>  (172) 
1.8567

>  <r_epik_State_Penalty>  (172) 
1.9704

>  <i_epik_Tot_Q>  (172) 
1

>  <i_f3d_flags>  (172) 
0

>  <s_m_job_name>  (172) 
Saureus_o

>  <FRED Chemgauss4 score>  (172) 
-12.449858

>  <Set>  (172) 
training

>  <HBA count>  (172) 
4

>  <HBD count>  (172) 
1

>  <ExactMolWt>  (172) 
311.15025226809047

>  <NumRotatableBounds>  (172) 
6

>  <FractionCsp3>  (172) 
0.23529411764705882

>  <TPSA>  (172) 
82.59000000000002

>  <LogP_WildmanCrippen>  (172) 
0.9187000000000003

>  <General_Cluster>  (172) 
5

>  <Biological_Cluster>  (172) 
2

>  <Physicochemical_Cluster>  (172) 
4

>  <Structural_Cluster>  (172) 
2

$$$$
CHEMBL3623425
     RDKit          3D

 53 56  0  0  0  0  0  0  0  0999 V2000
  108.1256   69.5285   44.8497 C   0  0  0  0  0  0  0  0  0  0  0  0
  107.0989   62.4526   46.7176 C   0  0  0  0  0  0  0  0  0  0  0  0
  106.8534   69.3250   44.3153 C   0  0  0  0  0  0  0  0  0  0  0  0
  109.2472   69.0216   44.1933 C   0  0  0  0  0  0  0  0  0  0  0  0
  106.3917   63.1733   45.7553 C   0  0  0  0  0  0  0  0  0  0  0  0
  108.4803   62.3001   46.5991 C   0  0  0  0  0  0  0  0  0  0  0  0
  106.7027   68.6145   43.1244 C   0  0  0  0  0  0  0  0  0  0  0  0
  109.0965   68.3111   43.0024 C   0  0  0  0  0  0  0  0  0  0  0  0
  107.0659   63.7415   44.6744 C   0  0  0  0  0  0  0  0  0  0  0  0
  109.1545   62.8683   45.5182 C   0  0  0  0  0  0  0  0  0  0  0  0
  110.5693   66.0958   36.5244 C   0  0  0  0  0  0  0  0  0  0  0  0
  109.9820   66.2448   35.2680 C   0  0  0  0  0  0  0  0  0  0  0  0
  110.3887   68.6246   35.3602 C   0  0  0  0  0  0  0  0  0  0  0  0
  107.8242   68.1076   42.4679 C   0  0  0  0  0  0  0  0  0  0  0  0
  110.9760   68.4755   36.6166 C   0  0  0  0  0  0  0  0  0  0  0  0
  108.4473   63.5890   44.5559 C   0  0  0  0  0  0  0  0  0  0  0  0
  111.0663   67.2112   37.1987 C   0  0  0  0  0  0  0  0  0  0  0  0
  109.8917   67.5092   34.6859 C   0  0  0  0  0  0  0  0  0  0  0  0
  110.3500   64.7232   41.1439 C   0  0  0  0  0  0  0  0  0  0  0  0
  109.7163   67.0973   39.8339 C   0  0  0  0  0  0  0  0  0  0  0  0
  110.8511   66.5150   39.4214 C   0  0  0  0  0  0  0  0  0  0  0  0
  109.2333   65.4051   41.4681 C   0  0  0  0  0  0  0  0  0  0  0  0
  111.2491   65.2431   40.0789 C   0  0  0  0  0  0  0  0  0  0  0  0
  111.5007   69.6805   37.3251 C   0  0  0  0  0  0  0  0  0  0  0  0
  107.6627   67.3425   41.1862 C   0  0  0  0  0  0  0  0  0  0  0  0
  108.3362   64.8628   42.5507 C   0  0  0  0  0  0  0  0  0  0  0  0
  108.8781   66.6084   40.8295 N   0  0  0  0  0  0  0  0  0  0  0  0
  112.2708   64.6438   39.7634 O   0  0  0  0  0  0  0  0  0  0  0  0
  111.6392   67.0476   38.4307 O   0  0  0  0  0  0  0  0  0  0  0  0
  109.1119   64.1472   43.4902 O   0  0  0  0  0  0  0  0  0  0  0  0
  109.1673   67.6937   33.1360 Cl  0  0  0  0  0  0  0  0  0  0  0  0
  108.2444   70.0888   45.7888 H   0  0  0  0  0  0  0  0  0  0  0  0
  106.5672   62.0045   47.5700 H   0  0  0  0  0  0  0  0  0  0  0  0
  105.9690   69.7248   44.8330 H   0  0  0  0  0  0  0  0  0  0  0  0
  110.2505   69.1822   44.6148 H   0  0  0  0  0  0  0  0  0  0  0  0
  105.3023   63.2936   45.8488 H   0  0  0  0  0  0  0  0  0  0  0  0
  109.0380   61.7318   47.3580 H   0  0  0  0  0  0  0  0  0  0  0  0
  105.6994   68.4539   42.7030 H   0  0  0  0  0  0  0  0  0  0  0  0
  109.9809   67.9113   42.4848 H   0  0  0  0  0  0  0  0  0  0  0  0
  106.5082   64.3098   43.9155 H   0  0  0  0  0  0  0  0  0  0  0  0
  110.2439   62.7480   45.4247 H   0  0  0  0  0  0  0  0  0  0  0  0
  110.6405   65.0987   36.9835 H   0  0  0  0  0  0  0  0  0  0  0  0
  109.5901   65.3652   34.7363 H   0  0  0  0  0  0  0  0  0  0  0  0
  110.3175   69.6217   34.9012 H   0  0  0  0  0  0  0  0  0  0  0  0
  110.5954   63.7860   41.6648 H   0  0  0  0  0  0  0  0  0  0  0  0
  109.4246   68.0385   39.3449 H   0  0  0  0  0  0  0  0  0  0  0  0
  111.4331   69.5252   38.4120 H   0  0  0  0  0  0  0  0  0  0  0  0
  112.5513   69.8435   37.0426 H   0  0  0  0  0  0  0  0  0  0  0  0
  110.9043   70.5606   37.0426 H   0  0  0  0  0  0  0  0  0  0  0  0
  106.8360   66.6261   41.3019 H   0  0  0  0  0  0  0  0  0  0  0  0
  107.4536   68.0646   40.3832 H   0  0  0  0  0  0  0  0  0  0  0  0
  107.8256   65.6961   43.0555 H   0  0  0  0  0  0  0  0  0  0  0  0
  107.5882   64.1908   42.1048 H   0  0  0  0  0  0  0  0  0  0  0  0
  1  3  2  0
  1  4  1  0
  2  5  2  0
  2  6  1  0
  3  7  1  0
  4  8  2  0
  5  9  1  0
  6 10  2  0
  7 14  2  0
  8 14  1  0
  9 16  2  0
 10 16  1  0
 11 12  2  0
 11 17  1  0
 12 18  1  0
 13 15  1  0
 13 18  2  0
 14 25  1  0
 15 17  2  0
 15 24  1  0
 16 30  1  0
 17 29  1  0
 18 31  1  0
 19 22  2  0
 19 23  1  0
 20 21  2  0
 20 27  1  0
 21 23  1  0
 21 29  1  0
 22 26  1  0
 22 27  1  0
 23 28  2  0
 25 27  1  0
 26 30  1  0
  1 32  1  0
  2 33  1  0
  3 34  1  0
  4 35  1  0
  5 36  1  0
  6 37  1  0
  7 38  1  0
  8 39  1  0
  9 40  1  0
 10 41  1  0
 11 42  1  0
 12 43  1  0
 13 44  1  0
 19 45  1  0
 20 46  1  0
 24 47  1  0
 24 48  1  0
 24 49  1  0
 25 50  1  0
 25 51  1  0
 26 52  1  0
 26 53  1  0
M  END
>  <Name>  (173) 
CHEMBL3623425

>  <Comment>  (173) 
 Schrodinger Suite 2021-4.

>  <s_m_entry_id>  (173) 
1176

>  <class_value>  (173) 
1

>  <s_m_Source_Path>  (173) 
C:\Users\vinicius\Desktop

>  <s_m_Source_File>  (173) 
Ligands_Saureus_o.sdf

>  <i_m_Source_File_Index>  (173) 
82

>  <r_lp_tautomer_probability>  (173) 
1

>  <r_epik_Ionization_Penalty>  (173) 
0

>  <r_epik_State_Penalty>  (173) 
0

>  <i_epik_Tot_Q>  (173) 
0

>  <i_f3d_flags>  (173) 
0

>  <s_m_job_name>  (173) 
Saureus_o

>  <FRED Chemgauss4 score>  (173) 
-11.710289

>  <Set>  (173) 
training

>  <HBA count>  (173) 
4

>  <HBD count>  (173) 
0

>  <ExactMolWt>  (173) 
431.12882124400056

>  <NumRotatableBounds>  (173) 
8

>  <FractionCsp3>  (173) 
0.11538461538461539

>  <TPSA>  (173) 
40.46

>  <LogP_WildmanCrippen>  (173) 
6.229720000000004

>  <General_Cluster>  (173) 
1

>  <Biological_Cluster>  (173) 
1

>  <Physicochemical_Cluster>  (173) 
1

>  <Structural_Cluster>  (173) 
5

$$$$
CHEMBL2178282
     RDKit          3D

 42 43  0  0  0  0  0  0  0  0999 V2000
  110.6469   64.9000   41.7731 C   0  0  0  0  0  0  0  0  0  0  0  0
  108.9028   66.4182   41.0732 C   0  0  0  0  0  0  0  0  0  0  0  0
  110.7901   68.6041   35.8901 C   0  0  0  0  0  0  0  0  0  0  0  0
  111.4899   65.4142   40.7880 C   0  0  0  0  0  0  0  0  0  0  0  0
  109.7458   66.9326   40.0881 C   0  0  0  0  0  0  0  0  0  0  0  0
  111.3204   68.4007   37.1640 C   0  0  0  0  0  0  0  0  0  0  0  0
  110.2834   66.2476   35.7248 C   0  0  0  0  0  0  0  0  0  0  0  0
  109.3533   65.4019   41.9157 C   0  0  0  0  0  0  0  0  0  0  0  0
  110.2716   67.5275   35.1704 C   0  0  0  0  0  0  0  0  0  0  0  0
  111.0394   66.4305   39.9455 C   0  0  0  0  0  0  0  0  0  0  0  0
  111.3322   67.1208   37.7184 C   0  0  0  0  0  0  0  0  0  0  0  0
  110.8137   66.0442   36.9988 C   0  0  0  0  0  0  0  0  0  0  0  0
  108.4522   64.8525   42.9687 C   0  0  0  0  0  0  0  0  0  0  0  0
  110.7511   67.5954   32.7103 C   0  0  0  0  0  0  0  0  0  0  0  0
  109.7022   67.7453   33.8093 C   0  0  0  0  0  0  0  0  0  0  0  0
  108.9760   63.7443   43.8708 C   0  0  0  0  0  0  0  0  0  0  0  0
  107.9378   63.2357   44.8700 C   0  0  0  0  0  0  0  0  0  0  0  0
  108.4809   62.1373   45.7768 C   0  0  0  0  0  0  0  0  0  0  0  0
  107.3105   65.2952   43.0688 O   0  0  0  0  0  0  0  0  0  0  0  0
  110.8205   64.7896   37.5293 O   0  0  0  0  0  0  0  0  0  0  0  0
  107.4551   61.7392   46.6769 O   0  0  0  0  0  0  0  0  0  0  0  0
  111.8617   66.9324   38.9841 O   0  0  0  0  0  0  0  0  0  0  0  0
  111.0022   64.0986   42.4376 H   0  0  0  0  0  0  0  0  0  0  0  0
  107.8827   66.8140   41.1857 H   0  0  0  0  0  0  0  0  0  0  0  0
  110.7807   69.6135   35.4530 H   0  0  0  0  0  0  0  0  0  0  0  0
  112.5100   65.0183   40.6755 H   0  0  0  0  0  0  0  0  0  0  0  0
  109.3905   67.7341   39.4238 H   0  0  0  0  0  0  0  0  0  0  0  0
  111.7293   69.2497   37.7315 H   0  0  0  0  0  0  0  0  0  0  0  0
  109.8745   65.3986   35.1573 H   0  0  0  0  0  0  0  0  0  0  0  0
  111.7421   67.4538   33.1662 H   0  0  0  0  0  0  0  0  0  0  0  0
  110.5064   66.7231   32.0864 H   0  0  0  0  0  0  0  0  0  0  0  0
  110.7605   68.5013   32.0864 H   0  0  0  0  0  0  0  0  0  0  0  0
  108.9033   67.0087   33.6383 H   0  0  0  0  0  0  0  0  0  0  0  0
  109.3163   68.7745   33.7673 H   0  0  0  0  0  0  0  0  0  0  0  0
  109.2948   62.9018   43.2395 H   0  0  0  0  0  0  0  0  0  0  0  0
  109.8091   64.1651   44.4529 H   0  0  0  0  0  0  0  0  0  0  0  0
  107.6099   64.0786   45.4962 H   0  0  0  0  0  0  0  0  0  0  0  0
  107.1043   62.8080   44.2935 H   0  0  0  0  0  0  0  0  0  0  0  0
  108.7938   61.2761   45.1682 H   0  0  0  0  0  0  0  0  0  0  0  0
  109.3485   62.5117   46.3399 H   0  0  0  0  0  0  0  0  0  0  0  0
  111.1949   64.6362   38.4328 H   0  0  0  0  0  0  0  0  0  0  0  0
  107.7679   61.8606   47.6083 H   0  0  0  0  0  0  0  0  0  0  0  0
  1  4  2  0
  1  8  1  0
  2  5  1  0
  2  8  2  0
  3  6  2  0
  3  9  1  0
  4 10  1  0
  5 10  2  0
  6 11  1  0
  7  9  2  0
  7 12  1  0
  8 13  1  0
  9 15  1  0
 10 22  1  0
 11 12  2  0
 11 22  1  0
 12 20  1  0
 13 16  1  0
 13 19  2  0
 14 15  1  0
 16 17  1  0
 17 18  1  0
 18 21  1  0
  1 23  1  0
  2 24  1  0
  3 25  1  0
  4 26  1  0
  5 27  1  0
  6 28  1  0
  7 29  1  0
 14 30  1  0
 14 31  1  0
 14 32  1  0
 15 33  1  0
 15 34  1  0
 16 35  1  0
 16 36  1  0
 17 37  1  0
 17 38  1  0
 18 39  1  0
 18 40  1  0
 20 41  1  0
 21 42  1  0
M  END
>  <Name>  (174) 
CHEMBL2178282

>  <Comment>  (174) 
 Schrodinger Suite 2021-4.

>  <s_m_entry_id>  (174) 
1098

>  <class_value>  (174) 
1

>  <s_m_Source_Path>  (174) 
C:\Users\vinicius\Desktop

>  <s_m_Source_File>  (174) 
Ligands_Saureus_o.sdf

>  <i_m_Source_File_Index>  (174) 
21

>  <r_lp_tautomer_probability>  (174) 
0.99990000499975

>  <r_epik_Ionization_Penalty>  (174) 
0.0643

>  <r_epik_State_Penalty>  (174) 
0.056

>  <i_epik_Tot_Q>  (174) 
0

>  <i_f3d_flags>  (174) 
0

>  <s_m_job_name>  (174) 
Saureus_o

>  <FRED Chemgauss4 score>  (174) 
-11.849609

>  <Set>  (174) 
training

>  <HBA count>  (174) 
4

>  <HBD count>  (174) 
2

>  <ExactMolWt>  (174) 
300.1361591200005

>  <NumRotatableBounds>  (174) 
10

>  <FractionCsp3>  (174) 
0.2777777777777778

>  <TPSA>  (174) 
66.76

>  <LogP_WildmanCrippen>  (174) 
3.7021000000000033

>  <General_Cluster>  (174) 
1

>  <Biological_Cluster>  (174) 
1

>  <Physicochemical_Cluster>  (174) 
1

>  <Structural_Cluster>  (174) 
3

$$$$
CHEMBL304450
     RDKit          3D

 30 32  0  0  1  0  0  0  0  0999 V2000
  112.1624   71.9688   33.1261 C   0  0  0  0  0  0  0  0  0  0  0  0
  111.8155   71.8225   34.4692 C   0  0  0  0  0  0  0  0  0  0  0  0
  111.6795   71.0660   32.1787 C   0  0  0  0  0  0  0  0  0  0  0  0
  110.9857   70.7735   34.8649 C   0  0  0  0  0  0  0  0  0  0  0  0
  110.8497   70.0170   32.5744 C   0  0  0  0  0  0  0  0  0  0  0  0
  110.9724   64.7068   38.4606 C   0  0  0  0  0  0  0  0  0  0  0  0
  111.5022   64.5855   39.7263 C   0  0  0  0  0  0  0  0  0  0  0  0
  111.8908   66.8190   38.7724 C   0  0  0  0  0  0  0  0  0  0  0  0
  111.1976   66.0005   37.9078 C   0  0  0  0  0  0  0  0  0  0  0  0
  110.5027   69.8707   33.9175 C   0  0  0  0  0  0  0  0  0  0  0  0
  110.7572   66.4486   36.5789 C   0  0  0  0  0  0  0  0  0  0  0  0
  109.5478   66.2394   34.7612 C   0  0  0  0  0  0  0  0  0  0  0  0
  110.3963   67.4937   34.7079 C   0  0  1  0  0  0  0  0  0  0  0  0
  109.6059   68.7365   34.3446 C   0  0  0  0  0  0  0  0  0  0  0  0
  110.9551   67.6217   36.0640 N   0  0  0  0  0  0  0  0  0  0  0  0
  110.0759   65.5193   35.8657 O   0  0  0  0  0  0  0  0  0  0  0  0
  112.2674   66.0275   40.2434 S   0  0  0  0  0  0  0  0  0  0  0  0
  112.8168   72.7961   32.8140 H   0  0  0  0  0  0  0  0  0  0  0  0
  112.1963   72.5344   35.2163 H   0  0  0  0  0  0  0  0  0  0  0  0
  111.9531   71.1813   31.1195 H   0  0  0  0  0  0  0  0  0  0  0  0
  110.7122   70.6581   35.9241 H   0  0  0  0  0  0  0  0  0  0  0  0
  110.4689   69.3051   31.8273 H   0  0  0  0  0  0  0  0  0  0  0  0
  110.4382   63.8996   37.9380 H   0  0  0  0  0  0  0  0  0  0  0  0
  111.4410   63.6702   40.3333 H   0  0  0  0  0  0  0  0  0  0  0  0
  112.1695   67.8584   38.5446 H   0  0  0  0  0  0  0  0  0  0  0  0
  108.4893   66.4891   34.9263 H   0  0  0  0  0  0  0  0  0  0  0  0
  109.5798   65.6642   33.8241 H   0  0  0  0  0  0  0  0  0  0  0  0
  111.1633   67.4079   33.9241 H   0  0  0  0  0  0  0  0  0  0  0  0
  109.0227   69.0554   35.2211 H   0  0  0  0  0  0  0  0  0  0  0  0
  108.9483   68.4861   33.4991 H   0  0  0  0  0  0  0  0  0  0  0  0
  1  2  2  0
  1  3  1  0
  2  4  1  0
  3  5  2  0
  4 10  2  0
  5 10  1  0
  6  7  2  0
  6  9  1  0
  7 17  1  0
  8  9  2  0
  8 17  1  0
  9 11  1  0
 10 14  1  0
 11 15  2  0
 11 16  1  0
 12 13  1  0
 12 16  1  0
 13 14  1  0
 13 15  1  0
  1 18  1  0
  2 19  1  0
  3 20  1  0
  4 21  1  0
  5 22  1  0
  6 23  1  0
  7 24  1  0
  8 25  1  0
 12 26  1  0
 12 27  1  0
 13 28  1  6
 14 29  1  0
 14 30  1  0
M  END
>  <Name>  (175) 
CHEMBL304450

>  <Comment>  (175) 
 Schrodinger Suite 2021-4.

>  <s_m_entry_id>  (175) 
1315

>  <class_value>  (175) 
0

>  <s_m_Source_Path>  (175) 
C:\Users\vinicius\Desktop

>  <s_m_Source_File>  (175) 
Ligands_Saureus_o.sdf

>  <i_m_Source_File_Index>  (175) 
187

>  <r_epik_Ionization_Penalty>  (175) 
0.0014

>  <r_epik_State_Penalty>  (175) 
0.0009

>  <i_epik_Tot_Q>  (175) 
0

>  <i_f3d_flags>  (175) 
0

>  <s_m_job_name>  (175) 
Saureus_o

>  <FRED Chemgauss4 score>  (175) 
-12.203806

>  <Set>  (175) 
training

>  <HBA count>  (175) 
3

>  <HBD count>  (175) 
0

>  <ExactMolWt>  (175) 
243.071785036

>  <NumRotatableBounds>  (175) 
3

>  <FractionCsp3>  (175) 
0.21428571428571427

>  <TPSA>  (175) 
21.59

>  <LogP_WildmanCrippen>  (175) 
3.1362000000000014

>  <General_Cluster>  (175) 
4

>  <Biological_Cluster>  (175) 
2

>  <Physicochemical_Cluster>  (175) 
3

>  <Structural_Cluster>  (175) 
1

$$$$
CHEMBL586043
     RDKit          3D

 62 66  0  0  0  0  0  0  0  0999 V2000
  111.5305   72.6593   33.9883 C   0  0  0  0  0  0  0  0  0  0  0  0
  111.8634   72.2279   35.2749 C   0  0  0  0  0  0  0  0  0  0  0  0
  110.9560   71.7825   33.0579 C   0  0  0  0  0  0  0  0  0  0  0  0
  111.6357   70.9091   35.6792 C   0  0  0  0  0  0  0  0  0  0  0  0
  110.4409   66.8083   38.7832 C   0  0  0  0  0  0  0  0  0  0  0  0
  112.4452   65.7990   39.5608 C   0  0  0  0  0  0  0  0  0  0  0  0
  110.7179   70.4516   33.4431 C   0  0  0  0  0  0  0  0  0  0  0  0
  111.6256   66.1403   38.4995 C   0  0  0  0  0  0  0  0  0  0  0  0
  110.1049   67.0951   40.1069 C   0  0  0  0  0  0  0  0  0  0  0  0
  110.1743   69.2959   32.8227 C   0  0  0  0  0  0  0  0  0  0  0  0
  111.0634   70.0611   34.7328 C   0  0  0  0  0  0  0  0  0  0  0  0
  110.2234   68.2920   33.7620 C   0  0  0  0  0  0  0  0  0  0  0  0
  110.9920   66.7055   41.1060 C   0  0  0  0  0  0  0  0  0  0  0  0
  109.4809   67.5413   42.8748 C   0  0  0  0  0  0  0  0  0  0  0  0
  111.9981   65.8229   37.1330 C   0  0  0  0  0  0  0  0  0  0  0  0
  111.1465   65.7666   36.0818 C   0  0  0  0  0  0  0  0  0  0  0  0
  111.6481   65.3955   34.7258 C   0  0  0  0  0  0  0  0  0  0  0  0
  108.8809   67.8878   40.4567 C   0  0  0  0  0  0  0  0  0  0  0  0
  107.2352   68.5640   42.2201 C   0  0  0  0  0  0  0  0  0  0  0  0
  107.7042   66.0952   41.8163 C   0  0  0  0  0  0  0  0  0  0  0  0
  106.3463   68.1822   43.3975 C   0  0  0  0  0  0  0  0  0  0  0  0
  106.8579   65.7702   43.0388 C   0  0  0  0  0  0  0  0  0  0  0  0
  108.3207   67.5194   41.8527 C   0  0  0  0  0  0  0  0  0  0  0  0
  109.6579   69.1894   31.4446 C   0  0  0  0  0  0  0  0  0  0  0  0
  111.3737   65.6148   32.2860 C   0  0  0  0  0  0  0  0  0  0  0  0
  109.8122   66.8481   33.7475 C   0  0  0  0  0  0  0  0  0  0  0  0
  112.1617   66.0720   40.8540 N   0  0  0  0  0  0  0  0  0  0  0  0
  110.6839   67.0135   42.4425 N   0  0  0  0  0  0  0  0  0  0  0  0
  110.9627   65.9527   33.6426 N   0  0  0  0  0  0  0  0  0  0  0  0
  105.8055   66.8115   43.1935 N   0  0  0  0  0  4  0  0  0  0  0  0
  109.3344   67.9259   44.0357 O   0  0  0  0  0  0  0  0  0  0  0  0
  112.5987   64.6196   34.6163 O   0  0  0  0  0  0  0  0  0  0  0  0
  110.7613   68.7460   34.9240 O   0  0  0  0  0  0  0  0  0  0  0  0
  111.7223   73.7037   33.7010 H   0  0  0  0  0  0  0  0  0  0  0  0
  112.3131   72.9394   35.9831 H   0  0  0  0  0  0  0  0  0  0  0  0
  110.6966   72.1288   32.0466 H   0  0  0  0  0  0  0  0  0  0  0  0
  111.8943   70.5597   36.6897 H   0  0  0  0  0  0  0  0  0  0  0  0
  109.7692   67.1105   37.9662 H   0  0  0  0  0  0  0  0  0  0  0  0
  113.3854   65.2731   39.3385 H   0  0  0  0  0  0  0  0  0  0  0  0
  113.0592   65.6107   36.9352 H   0  0  0  0  0  0  0  0  0  0  0  0
  110.0805   65.9953   36.2277 H   0  0  0  0  0  0  0  0  0  0  0  0
  109.1382   68.9573   40.4498 H   0  0  0  0  0  0  0  0  0  0  0  0
  108.1058   67.6561   39.7114 H   0  0  0  0  0  0  0  0  0  0  0  0
  106.5916   68.7112   41.3403 H   0  0  0  0  0  0  0  0  0  0  0  0
  107.7741   69.4735   42.5240 H   0  0  0  0  0  0  0  0  0  0  0  0
  108.5225   65.3627   41.7543 H   0  0  0  0  0  0  0  0  0  0  0  0
  107.0394   66.0520   40.9410 H   0  0  0  0  0  0  0  0  0  0  0  0
  106.9370   68.2079   44.3251 H   0  0  0  0  0  0  0  0  0  0  0  0
  105.5123   68.8957   43.4708 H   0  0  0  0  0  0  0  0  0  0  0  0
  106.3854   64.7855   42.9085 H   0  0  0  0  0  0  0  0  0  0  0  0
  107.4945   65.7506   43.9357 H   0  0  0  0  0  0  0  0  0  0  0  0
  108.5809   68.9673   31.4727 H   0  0  0  0  0  0  0  0  0  0  0  0
  109.8225   70.1404   30.9168 H   0  0  0  0  0  0  0  0  0  0  0  0
  110.1853   68.3811   30.9168 H   0  0  0  0  0  0  0  0  0  0  0  0
  112.2229   64.9166   32.3233 H   0  0  0  0  0  0  0  0  0  0  0  0
  110.5338   65.1426   31.7553 H   0  0  0  0  0  0  0  0  0  0  0  0
  111.6746   66.5301   31.7553 H   0  0  0  0  0  0  0  0  0  0  0  0
  109.2710   66.6235   34.6784 H   0  0  0  0  0  0  0  0  0  0  0  0
  109.1733   66.6854   32.8670 H   0  0  0  0  0  0  0  0  0  0  0  0
  111.4078   66.8327   43.1525 H   0  0  0  0  0  0  0  0  0  0  0  0
  105.2233   66.5671   44.0073 H   0  0  0  0  0  0  0  0  0  0  0  0
  105.2668   66.8279   42.3158 H   0  0  0  0  0  0  0  0  0  0  0  0
  1  2  2  0
  1  3  1  0
  2  4  1  0
  3  7  2  0
  4 11  2  0
  5  8  2  0
  5  9  1  0
  6  8  1  0
  6 27  2  0
  7 10  1  0
  7 11  1  0
  8 15  1  0
  9 13  2  0
  9 18  1  0
 10 12  2  0
 10 24  1  0
 11 33  1  0
 12 26  1  0
 12 33  1  0
 13 27  1  0
 13 28  1  0
 14 23  1  0
 14 28  1  0
 14 31  2  0
 15 16  2  0
 16 17  1  0
 17 29  1  0
 17 32  2  0
 18 23  1  0
 19 21  1  0
 19 23  1  0
 20 22  1  0
 20 23  1  0
 21 30  1  0
 22 30  1  0
 25 29  1  0
 26 29  1  0
  1 34  1  0
  2 35  1  0
  3 36  1  0
  4 37  1  0
  5 38  1  0
  6 39  1  0
 15 40  1  0
 16 41  1  0
 18 42  1  0
 18 43  1  0
 19 44  1  0
 19 45  1  0
 20 46  1  0
 20 47  1  0
 21 48  1  0
 21 49  1  0
 22 50  1  0
 22 51  1  0
 24 52  1  0
 24 53  1  0
 24 54  1  0
 25 55  1  0
 25 56  1  0
 25 57  1  0
 26 58  1  0
 26 59  1  0
 28 60  1  0
 30 61  1  0
 30 62  1  0
M  CHG  1  30   1
M  END
>  <Name>  (176) 
CHEMBL586043

>  <Comment>  (176) 
 Schrodinger Suite 2021-4.

>  <s_m_entry_id>  (176) 
1101

>  <class_value>  (176) 
1

>  <s_m_Source_Path>  (176) 
C:\Users\vinicius\Desktop

>  <s_m_Source_File>  (176) 
Ligands_Saureus_o.sdf

>  <i_m_Source_File_Index>  (176) 
23

>  <r_lp_tautomer_probability>  (176) 
1

>  <r_epik_Ionization_Penalty>  (176) 
0.0015

>  <r_epik_State_Penalty>  (176) 
0

>  <i_epik_Tot_Q>  (176) 
1

>  <i_f3d_flags>  (176) 
0

>  <s_m_job_name>  (176) 
Saureus_o

>  <FRED Chemgauss4 score>  (176) 
-19.629234

>  <Set>  (176) 
training

>  <HBA count>  (176) 
4

>  <HBD count>  (176) 
2

>  <ExactMolWt>  (176) 
445.22341720809084

>  <NumRotatableBounds>  (176) 
6

>  <FractionCsp3>  (176) 
0.34615384615384615

>  <TPSA>  (176) 
92.05

>  <LogP_WildmanCrippen>  (176) 
2.6462200000000005

>  <General_Cluster>  (176) 
1

>  <Biological_Cluster>  (176) 
1

>  <Physicochemical_Cluster>  (176) 
4

>  <Structural_Cluster>  (176) 
2

$$$$
CHEMBL72232
     RDKit          3D

 52 56  0  0  0  0  0  0  0  0999 V2000
  111.5288   65.5934   33.1594 C   0  0  0  0  0  0  0  0  0  0  0  0
  110.9490   66.8278   32.8749 C   0  0  0  0  0  0  0  0  0  0  0  0
  111.6598   65.1508   34.4805 C   0  0  0  0  0  0  0  0  0  0  0  0
  110.1956   67.8152   42.2332 C   0  0  0  0  0  0  0  0  0  0  0  0
  108.0052   66.8452   41.9200 C   0  0  0  0  0  0  0  0  0  0  0  0
  111.5983   70.6504   36.5326 C   0  0  0  0  0  0  0  0  0  0  0  0
  110.0983   70.7029   34.6393 C   0  0  0  0  0  0  0  0  0  0  0  0
  110.4822   67.6576   33.8981 C   0  0  0  0  0  0  0  0  0  0  0  0
  109.6355   68.8292   43.0101 C   0  0  0  0  0  0  0  0  0  0  0  0
  107.4450   67.8591   42.6970 C   0  0  0  0  0  0  0  0  0  0  0  0
  112.3758   71.6478   35.9442 C   0  0  0  0  0  0  0  0  0  0  0  0
  110.8759   71.7004   34.0510 C   0  0  0  0  0  0  0  0  0  0  0  0
  111.1975   65.9697   35.5304 C   0  0  0  0  0  0  0  0  0  0  0  0
  109.3804   66.8232   41.6880 C   0  0  0  0  0  0  0  0  0  0  0  0
  111.1662   65.8501   36.9464 C   0  0  0  0  0  0  0  0  0  0  0  0
  110.4595   70.1779   35.8801 C   0  0  0  0  0  0  0  0  0  0  0  0
  110.6184   67.2041   35.2152 C   0  0  0  0  0  0  0  0  0  0  0  0
  108.2602   68.8512   43.2421 C   0  0  0  0  0  0  0  0  0  0  0  0
  112.0146   72.1729   34.7035 C   0  0  0  0  0  0  0  0  0  0  0  0
  110.5756   66.9903   37.4488 C   0  0  0  0  0  0  0  0  0  0  0  0
  109.9709   65.7538   40.8689 C   0  0  0  0  0  0  0  0  0  0  0  0
  111.6283   64.7585   37.8457 C   0  0  0  0  0  0  0  0  0  0  0  0
  110.3366   67.3096   38.8804 C   0  0  0  0  0  0  0  0  0  0  0  0
  111.8146   65.3018   39.2728 C   0  0  0  0  0  0  0  0  0  0  0  0
  109.6202   69.1022   36.5149 C   0  0  0  0  0  0  0  0  0  0  0  0
  110.2509   67.8039   36.4014 N   0  0  0  0  0  0  0  0  0  0  0  0
  110.6576   66.1158   39.7039 N   0  0  0  0  0  0  0  0  0  0  0  0
  109.8189   64.6045   41.2805 O   0  0  0  0  0  0  0  0  0  0  0  0
  107.7134   69.8405   44.0001 O   0  0  0  0  0  0  0  0  0  0  0  0
  112.7728   73.1470   34.1302 O   0  0  0  0  0  0  0  0  0  0  0  0
  111.8880   64.9590   32.3357 H   0  0  0  0  0  0  0  0  0  0  0  0
  110.8572   67.1545   31.8286 H   0  0  0  0  0  0  0  0  0  0  0  0
  112.1184   64.1747   34.6971 H   0  0  0  0  0  0  0  0  0  0  0  0
  111.2802   67.7978   42.0504 H   0  0  0  0  0  0  0  0  0  0  0  0
  107.3624   66.0629   41.4902 H   0  0  0  0  0  0  0  0  0  0  0  0
  111.8831   70.2364   37.5111 H   0  0  0  0  0  0  0  0  0  0  0  0
  109.2003   70.3303   34.1247 H   0  0  0  0  0  0  0  0  0  0  0  0
  110.0240   68.6327   33.6761 H   0  0  0  0  0  0  0  0  0  0  0  0
  110.2783   69.6116   43.4399 H   0  0  0  0  0  0  0  0  0  0  0  0
  106.3605   67.8764   42.8799 H   0  0  0  0  0  0  0  0  0  0  0  0
  113.2739   72.0203   36.4587 H   0  0  0  0  0  0  0  0  0  0  0  0
  110.5911   72.1144   33.0725 H   0  0  0  0  0  0  0  0  0  0  0  0
  110.8794   63.9529   37.8567 H   0  0  0  0  0  0  0  0  0  0  0  0
  112.5885   64.3674   37.4781 H   0  0  0  0  0  0  0  0  0  0  0  0
  110.9792   68.1496   39.1829 H   0  0  0  0  0  0  0  0  0  0  0  0
  109.2829   67.5891   39.0272 H   0  0  0  0  0  0  0  0  0  0  0  0
  111.9317   64.4544   39.9643 H   0  0  0  0  0  0  0  0  0  0  0  0
  112.7077   65.9440   39.2812 H   0  0  0  0  0  0  0  0  0  0  0  0
  109.4794   69.3398   37.5797 H   0  0  0  0  0  0  0  0  0  0  0  0
  108.6531   69.0641   35.9922 H   0  0  0  0  0  0  0  0  0  0  0  0
  106.7373   69.8559   44.1646 H   0  0  0  0  0  0  0  0  0  0  0  0
  112.5166   73.5198   33.2496 H   0  0  0  0  0  0  0  0  0  0  0  0
  1  2  2  0
  1  3  1  0
  2  8  1  0
  3 13  2  0
  4  9  2  0
  4 14  1  0
  5 10  1  0
  5 14  2  0
  6 11  2  0
  6 16  1  0
  7 12  1  0
  7 16  2  0
  8 17  2  0
  9 18  1  0
 10 18  2  0
 11 19  1  0
 12 19  2  0
 13 15  1  0
 13 17  1  0
 14 21  1  0
 15 20  2  0
 15 22  1  0
 16 25  1  0
 17 26  1  0
 18 29  1  0
 19 30  1  0
 20 23  1  0
 20 26  1  0
 21 27  1  0
 21 28  2  0
 22 24  1  0
 23 27  1  0
 24 27  1  0
 25 26  1  0
  1 31  1  0
  2 32  1  0
  3 33  1  0
  4 34  1  0
  5 35  1  0
  6 36  1  0
  7 37  1  0
  8 38  1  0
  9 39  1  0
 10 40  1  0
 11 41  1  0
 12 42  1  0
 22 43  1  0
 22 44  1  0
 23 45  1  0
 23 46  1  0
 24 47  1  0
 24 48  1  0
 25 49  1  0
 25 50  1  0
 29 51  1  0
 30 52  1  0
M  END
>  <Name>  (177) 
CHEMBL72232

>  <Comment>  (177) 
 Schrodinger Suite 2021-4.

>  <s_m_entry_id>  (177) 
1113

>  <class_value>  (177) 
1

>  <s_m_Source_Path>  (177) 
C:\Users\vinicius\Desktop

>  <s_m_Source_File>  (177) 
Ligands_Saureus_o.sdf

>  <i_m_Source_File_Index>  (177) 
33

>  <r_lp_tautomer_probability>  (177) 
0.99999999999473

>  <r_epik_Ionization_Penalty>  (177) 
0.0155

>  <r_epik_State_Penalty>  (177) 
0.0114

>  <i_epik_Tot_Q>  (177) 
0

>  <i_f3d_flags>  (177) 
0

>  <s_m_job_name>  (177) 
Saureus_o

>  <FRED Chemgauss4 score>  (177) 
-12.319631

>  <Set>  (177) 
training

>  <HBA count>  (177) 
4

>  <HBD count>  (177) 
2

>  <ExactMolWt>  (177) 
398.1630425640006

>  <NumRotatableBounds>  (177) 
5

>  <FractionCsp3>  (177) 
0.16

>  <TPSA>  (177) 
65.7

>  <LogP_WildmanCrippen>  (177) 
4.299300000000004

>  <General_Cluster>  (177) 
3

>  <Biological_Cluster>  (177) 
1

>  <Physicochemical_Cluster>  (177) 
1

>  <Structural_Cluster>  (177) 
4

$$$$
Zheng_1
     RDKit          3D

 54 58  0  0  1  0  0  0  0  0999 V2000
  110.2777   73.1116   34.9382 C   0  0  0  0  0  0  0  0  0  0  0  0
  111.4044   73.2352   35.7756 C   0  0  0  0  0  0  0  0  0  0  0  0
  109.7585   71.8576   34.6063 C   0  0  0  0  0  0  0  0  0  0  0  0
  112.0361   72.1081   36.3093 C   0  0  0  0  0  0  0  0  0  0  0  0
  111.6831   65.5546   40.7107 C   0  0  0  0  0  0  0  0  0  0  0  0
  109.8900   64.5539   41.2710 C   0  0  0  0  0  0  0  0  0  0  0  0
  110.3801   70.7490   35.1422 C   0  0  0  0  0  0  0  0  0  0  0  0
  111.5116   70.8709   35.9912 C   0  0  0  0  0  0  0  0  0  0  0  0
  110.9608   65.4166   39.5489 C   0  0  0  0  0  0  0  0  0  0  0  0
  108.8604   68.6272   34.6679 C   0  0  0  0  0  0  0  0  0  0  0  0
  108.7773   67.3017   34.8859 C   0  0  0  0  0  0  0  0  0  0  0  0
  110.8008   66.9467   37.6388 C   0  0  0  0  0  0  0  0  0  0  0  0
  110.1518   68.0594   38.3975 C   0  0  0  0  0  0  0  0  0  0  0  0
  109.9595   66.5401   35.4680 C   0  0  0  0  0  0  0  0  0  0  0  0
  111.3547   71.0896   32.3782 C   0  0  0  0  0  0  0  0  0  0  0  0
  111.1530   65.7762   38.1737 C   0  0  0  0  0  0  0  0  0  0  0  0
  111.7862   70.1935   33.2746 C   0  0  0  0  0  0  0  0  0  0  0  0
  110.1722   69.2770   34.9187 C   0  0  2  0  0  0  0  0  0  0  0  0
  110.7045   68.7708   36.3031 C   0  0  2  0  0  0  0  0  0  0  0  0
  112.1374   67.9102   34.1754 C   0  0  0  0  0  0  0  0  0  0  0  0
  110.2071   68.2730   32.6307 C   0  0  0  0  0  0  0  0  0  0  0  0
  114.1124   69.6933   37.2553 C   0  0  0  0  0  0  0  0  0  0  0  0
  111.0910   68.9201   33.7003 C   0  0  0  0  0  0  0  0  0  0  0  0
  111.0112   65.0153   41.7790 N   0  0  0  0  0  0  0  0  0  0  0  0
  109.8421   69.0261   37.5135 N   0  0  0  0  0  2  0  0  0  0  0  0
  109.8149   64.7734   39.9236 N   0  0  0  0  0  0  0  0  0  0  0  0
  111.9420   69.5808   36.4469 N   0  0  0  0  0  0  0  0  0  0  0  0
  110.8147   67.3100   36.3033 N   0  0  0  0  0  0  0  0  0  0  0  0
  109.9233   68.0254   39.5977 O   0  0  0  0  0  0  0  0  0  0  0  0
  110.0343   65.3223   35.3116 O   0  0  0  0  0  0  0  0  0  0  0  0
  107.6427   66.5922   34.5605 O   0  0  0  0  0  0  0  0  0  0  0  0
  112.7300   69.4199   37.5698 O   0  0  0  0  0  0  0  0  0  0  0  0
  109.7988   74.0179   34.5390 H   0  0  0  0  0  0  0  0  0  0  0  0
  111.7936   74.2362   36.0135 H   0  0  0  0  0  0  0  0  0  0  0  0
  108.8869   71.7582   33.9427 H   0  0  0  0  0  0  0  0  0  0  0  0
  112.9187   72.2033   36.9589 H   0  0  0  0  0  0  0  0  0  0  0  0
  112.6707   66.0347   40.7755 H   0  0  0  0  0  0  0  0  0  0  0  0
  109.1072   64.0521   41.8587 H   0  0  0  0  0  0  0  0  0  0  0  0
  107.9924   69.2055   34.3183 H   0  0  0  0  0  0  0  0  0  0  0  0
  111.9597   71.9812   32.1568 H   0  0  0  0  0  0  0  0  0  0  0  0
  110.3952   70.9342   31.8632 H   0  0  0  0  0  0  0  0  0  0  0  0
  111.6245   65.0339   37.5128 H   0  0  0  0  0  0  0  0  0  0  0  0
  112.7528   70.4073   33.7541 H   0  0  0  0  0  0  0  0  0  0  0  0
  112.1564   67.8918   35.2751 H   0  0  0  0  0  0  0  0  0  0  0  0
  111.8803   66.9101   33.7964 H   0  0  0  0  0  0  0  0  0  0  0  0
  113.1278   68.2026   33.7964 H   0  0  0  0  0  0  0  0  0  0  0  0
  109.4108   67.6900   33.1166 H   0  0  0  0  0  0  0  0  0  0  0  0
  109.7572   69.0567   32.0035 H   0  0  0  0  0  0  0  0  0  0  0  0
  110.8183   67.6073   32.0035 H   0  0  0  0  0  0  0  0  0  0  0  0
  114.6851   69.8066   38.1876 H   0  0  0  0  0  0  0  0  0  0  0  0
  114.5269   68.8597   36.6693 H   0  0  0  0  0  0  0  0  0  0  0  0
  114.1784   70.6219   36.6693 H   0  0  0  0  0  0  0  0  0  0  0  0
  109.0372   64.5034   39.3045 H   0  0  0  0  0  0  0  0  0  0  0  0
  107.6029   65.6175   34.7294 H   0  0  0  0  0  0  0  0  0  0  0  0
  1  2  2  0
  1  3  1  0
  2  4  1  0
  3  7  2  0
  4  8  2  0
  5  9  2  0
  5 24  1  0
  6 24  2  0
  6 26  1  0
  7  8  1  0
  7 18  1  0
  8 27  1  0
  9 16  1  0
  9 26  1  0
 10 11  2  0
 10 18  1  0
 11 14  1  0
 11 31  1  0
 12 13  1  0
 12 16  2  0
 12 28  1  0
 13 25  1  0
 13 29  2  0
 14 28  1  0
 14 30  2  0
 15 17  2  3
 17 23  1  0
 18 19  1  0
 18 23  1  6
 19 25  1  1
 19 27  1  0
 19 28  1  0
 20 23  1  0
 21 23  1  0
 22 32  1  0
 27 32  1  0
  1 33  1  0
  2 34  1  0
  3 35  1  0
  4 36  1  0
  5 37  1  0
  6 38  1  0
 10 39  1  0
 15 40  1  0
 15 41  1  0
 16 42  1  0
 17 43  1  0
 20 44  1  0
 20 45  1  0
 20 46  1  0
 21 47  1  0
 21 48  1  0
 21 49  1  0
 22 50  1  0
 22 51  1  0
 22 52  1  0
 26 53  1  0
 31 54  1  0
M  CHG  1  25  -1
M  END
>  <Name>  (178) 
Zheng_1

>  <Comment>  (178) 
 Schrodinger Suite 2021-4.

>  <s_m_entry_id>  (178) 
1392

>  <class_value>  (178) 
0

>  <s_m_Source_Path>  (178) 
C:\Users\vinicius\Desktop

>  <s_m_Source_File>  (178) 
Ligands_Saureus_o.sdf

>  <i_m_Source_File_Index>  (178) 
229

>  <r_epik_Ionization_Penalty>  (178) 
1.8357

>  <r_epik_State_Penalty>  (178) 
2.2006

>  <i_epik_Tot_Q>  (178) 
-1

>  <i_f3d_flags>  (178) 
0

>  <s_m_job_name>  (178) 
Saureus_o

>  <FRED Chemgauss4 score>  (178) 
-9.031668

>  <Set>  (178) 
training

>  <HBA count>  (178) 
6

>  <HBD count>  (178) 
2

>  <ExactMolWt>  (178) 
432.16772776391065

>  <NumRotatableBounds>  (178) 
8

>  <FractionCsp3>  (178) 
0.2608695652173913

>  <TPSA>  (178) 
112.86000000000001

>  <LogP_WildmanCrippen>  (178) 
3.1340000000000003

>  <General_Cluster>  (178) 
5

>  <Biological_Cluster>  (178) 
2

>  <Physicochemical_Cluster>  (178) 
4

>  <Structural_Cluster>  (178) 
3

$$$$
CHEMBL3676418
     RDKit          3D

 58 61  0  0  1  0  0  0  0  0999 V2000
  110.6256   66.8321   33.3221 C   0  0  0  0  0  0  0  0  0  0  0  0
  109.8178   68.4837   34.8895 C   0  0  0  0  0  0  0  0  0  0  0  0
  110.4485   67.7379   32.2763 C   0  0  0  0  0  0  0  0  0  0  0  0
  109.6408   69.3896   33.8437 C   0  0  0  0  0  0  0  0  0  0  0  0
  108.0690   64.2582   43.0116 C   0  0  0  0  0  0  0  0  0  0  0  0
  108.0516   66.2090   44.3662 C   0  0  0  0  0  0  0  0  0  0  0  0
  108.6026   65.5060   43.3096 C   0  0  0  0  0  0  0  0  0  0  0  0
  107.0243   63.7464   43.7827 C   0  0  0  0  0  0  0  0  0  0  0  0
  110.3102   67.2049   34.6287 C   0  0  0  0  0  0  0  0  0  0  0  0
  109.9561   69.0167   32.5371 C   0  0  0  0  0  0  0  0  0  0  0  0
  106.5409   64.5280   44.8307 C   0  0  0  0  0  0  0  0  0  0  0  0
  104.9547   62.7642   45.5181 C   0  0  0  0  0  0  0  0  0  0  0  0
  109.7094   66.0689   42.5167 C   0  0  0  0  0  0  0  0  0  0  0  0
  110.5404   65.3574   41.7405 C   0  0  0  0  0  0  0  0  0  0  0  0
  111.6431   65.9666   40.9707 C   0  0  0  0  0  0  0  0  0  0  0  0
  106.3601   62.4461   43.4407 C   0  0  0  0  0  0  0  0  0  0  0  0
  110.9280   64.4220   37.7807 C   0  0  0  0  0  0  0  0  0  0  0  0
  112.6795   66.2303   37.5784 C   0  0  0  0  0  0  0  0  0  0  0  0
  111.4314   64.1408   39.1947 C   0  0  0  0  0  0  0  0  0  0  0  0
  113.1291   65.9109   39.0033 C   0  0  0  0  0  0  0  0  0  0  0  0
  105.7918   61.7841   44.6964 C   0  0  2  0  0  0  0  0  0  0  0  0
  112.0479   65.0029   36.9018 C   0  0  0  0  0  0  0  0  0  0  0  0
  104.9928   60.5351   44.3343 C   0  0  0  0  0  0  0  0  0  0  0  0
  111.5201   65.3589   35.5141 C   0  0  0  0  0  0  0  0  0  0  0  0
  107.0306   65.7552   45.1269 N   0  0  0  0  0  0  0  0  0  0  0  0
  105.4674   64.0457   45.6028 N   0  0  0  0  0  0  0  0  0  0  0  0
  112.0193   65.3535   39.7793 N   0  0  0  0  0  0  0  0  0  0  0  0
  103.9509   62.4157   46.1397 O   0  0  0  0  0  0  0  0  0  0  0  0
  112.1623   66.9860   41.4288 O   0  0  0  0  0  0  0  0  0  0  0  0
  104.9900   59.6634   45.4499 O   0  0  0  0  0  0  0  0  0  0  0  0
  110.4845   66.3131   35.6582 O   0  0  0  0  0  0  0  0  0  0  0  0
  109.7861   69.8866   31.5328 F   0  0  0  0  0  0  0  0  0  0  0  0
  111.0140   65.8237   33.1164 H   0  0  0  0  0  0  0  0  0  0  0  0
  109.5691   68.7777   35.9199 H   0  0  0  0  0  0  0  0  0  0  0  0
  110.6971   67.4438   31.2459 H   0  0  0  0  0  0  0  0  0  0  0  0
  109.2526   70.3981   34.0494 H   0  0  0  0  0  0  0  0  0  0  0  0
  108.4692   63.6747   42.1694 H   0  0  0  0  0  0  0  0  0  0  0  0
  108.4704   67.1985   44.6018 H   0  0  0  0  0  0  0  0  0  0  0  0
  109.8664   67.1566   42.5649 H   0  0  0  0  0  0  0  0  0  0  0  0
  110.3934   64.2693   41.6744 H   0  0  0  0  0  0  0  0  0  0  0  0
  105.5421   62.6343   42.7297 H   0  0  0  0  0  0  0  0  0  0  0  0
  107.1070   61.7739   42.9931 H   0  0  0  0  0  0  0  0  0  0  0  0
  110.5700   63.4831   37.3331 H   0  0  0  0  0  0  0  0  0  0  0  0
  110.1118   65.1572   37.8393 H   0  0  0  0  0  0  0  0  0  0  0  0
  111.9383   67.0424   37.6104 H   0  0  0  0  0  0  0  0  0  0  0  0
  113.5626   66.5310   36.9956 H   0  0  0  0  0  0  0  0  0  0  0  0
  110.5895   63.8085   39.8198 H   0  0  0  0  0  0  0  0  0  0  0  0
  112.2015   63.3566   39.1501 H   0  0  0  0  0  0  0  0  0  0  0  0
  113.9497   65.1792   38.9684 H   0  0  0  0  0  0  0  0  0  0  0  0
  113.4688   66.8395   39.4854 H   0  0  0  0  0  0  0  0  0  0  0  0
  106.6384   61.4745   45.3269 H   0  0  0  0  0  0  0  0  0  0  0  0
  112.8265   64.2353   36.7811 H   0  0  0  0  0  0  0  0  0  0  0  0
  103.9600   60.8161   44.0806 H   0  0  0  0  0  0  0  0  0  0  0  0
  105.4484   60.0350   43.4669 H   0  0  0  0  0  0  0  0  0  0  0  0
  112.3327   65.7824   34.9055 H   0  0  0  0  0  0  0  0  0  0  0  0
  111.1350   64.4575   35.0148 H   0  0  0  0  0  0  0  0  0  0  0  0
  105.0338   64.6919   46.2775 H   0  0  0  0  0  0  0  0  0  0  0  0
  104.9917   60.1957   46.2846 H   0  0  0  0  0  0  0  0  0  0  0  0
  1  3  2  0
  1  9  1  0
  2  4  1  0
  2  9  2  0
  3 10  1  0
  4 10  2  0
  5  7  2  0
  5  8  1  0
  6  7  1  0
  6 25  2  0
  7 13  1  0
  8 11  2  0
  8 16  1  0
  9 31  1  0
 10 32  1  0
 11 25  1  0
 11 26  1  0
 12 21  1  0
 12 26  1  0
 12 28  2  0
 13 14  2  0
 14 15  1  0
 15 27  1  0
 15 29  2  0
 16 21  1  0
 17 19  1  0
 17 22  1  0
 18 20  1  0
 18 22  1  0
 19 27  1  0
 20 27  1  0
 21 23  1  0
 22 24  1  0
 23 30  1  0
 24 31  1  0
  1 33  1  0
  2 34  1  0
  3 35  1  0
  4 36  1  0
  5 37  1  0
  6 38  1  0
 13 39  1  0
 14 40  1  0
 16 41  1  0
 16 42  1  0
 17 43  1  0
 17 44  1  0
 18 45  1  0
 18 46  1  0
 19 47  1  0
 19 48  1  0
 20 49  1  0
 20 50  1  0
 21 51  1  1
 22 52  1  0
 23 53  1  0
 23 54  1  0
 24 55  1  0
 24 56  1  0
 26 57  1  0
 30 58  1  0
M  END
>  <Name>  (179) 
CHEMBL3676418

>  <Comment>  (179) 
 Schrodinger Suite 2021-4.

>  <s_m_entry_id>  (179) 
1426

>  <s_m_Source_Path>  (179) 
C:\Users\vinicius\Desktop

>  <s_m_Source_File>  (179) 
Ligands_Saureus_failomega.smi

>  <i_m_Source_File_Index>  (179) 
2

>  <r_lp_tautomer_probability>  (179) 
1

>  <r_epik_Ionization_Penalty>  (179) 
0.0002

>  <r_epik_State_Penalty>  (179) 
0

>  <i_epik_Tot_Q>  (179) 
0

>  <i_f3d_flags>  (179) 
0

>  <s_m_job_name>  (179) 
Saureus_fail

>  <class_value>  (179) 
1

>  <FRED Chemgauss4 score>  (179) 
-13.628577

>  <Set>  (179) 
training

>  <HBA count>  (179) 
5

>  <HBD count>  (179) 
2

>  <ExactMolWt>  (179) 
439.1907345320007

>  <NumRotatableBounds>  (179) 
7

>  <FractionCsp3>  (179) 
0.375

>  <TPSA>  (179) 
91.76

>  <LogP_WildmanCrippen>  (179) 
2.6546000000000007

>  <General_Cluster>  (179) 
1

>  <Biological_Cluster>  (179) 
1

>  <Physicochemical_Cluster>  (179) 
4

>  <Structural_Cluster>  (179) 
2

$$$$
CHEMBL3623412
     RDKit          3D

 35 37  0  0  0  0  0  0  0  0999 V2000
  109.4416   66.3839   34.9275 C   0  0  0  0  0  0  0  0  0  0  0  0
  106.6916   63.7837   45.5573 C   0  0  0  0  0  0  0  0  0  0  0  0
  107.3882   64.2194   44.4356 C   0  0  0  0  0  0  0  0  0  0  0  0
  110.2725   66.1390   36.0208 C   0  0  0  0  0  0  0  0  0  0  0  0
  109.3522   67.6696   34.3937 C   0  0  0  0  0  0  0  0  0  0  0  0
  106.8471   62.4625   45.9447 C   0  0  0  0  0  0  0  0  0  0  0  0
  108.2953   62.0321   44.2139 C   0  0  0  0  0  0  0  0  0  0  0  0
  108.2075   63.3331   43.7453 C   0  0  0  0  0  0  0  0  0  0  0  0
  111.0139   67.1796   36.5803 C   0  0  0  0  0  0  0  0  0  0  0  0
  110.0935   68.7102   34.9532 C   0  0  0  0  0  0  0  0  0  0  0  0
  110.9244   68.4653   36.0466 C   0  0  0  0  0  0  0  0  0  0  0  0
  110.9020   64.6119   40.5220 C   0  0  0  0  0  0  0  0  0  0  0  0
  110.2629   67.0888   39.4370 C   0  0  0  0  0  0  0  0  0  0  0  0
  111.2112   66.4099   38.7803 C   0  0  0  0  0  0  0  0  0  0  0  0
  109.9752   65.4095   41.0622 C   0  0  0  0  0  0  0  0  0  0  0  0
  111.6033   65.0784   39.3029 C   0  0  0  0  0  0  0  0  0  0  0  0
  108.9582   63.7638   42.5530 C   0  0  0  0  0  0  0  0  0  0  0  0
  109.2462   65.0359   42.2445 C   0  0  0  0  0  0  0  0  0  0  0  0
  107.6338   61.5723   45.2995 N   0  0  0  0  0  0  0  0  0  0  0  0
  112.4625   64.3939   38.7601 O   0  0  0  0  0  0  0  0  0  0  0  0
  109.6176   66.6458   40.5673 O   0  0  0  0  0  0  0  0  0  0  0  0
  111.8192   66.9042   37.6516 O   0  0  0  0  0  0  0  0  0  0  0  0
  109.9352   70.2794   34.2434 Cl  0  0  0  0  0  0  0  0  0  0  0  0
  111.8596   69.7359   36.7658 Cl  0  0  0  0  0  0  0  0  0  0  0  0
  108.8569   65.5633   34.4863 H   0  0  0  0  0  0  0  0  0  0  0  0
  106.0376   64.4665   46.1195 H   0  0  0  0  0  0  0  0  0  0  0  0
  107.2915   65.2611   44.0957 H   0  0  0  0  0  0  0  0  0  0  0  0
  110.3431   65.1252   36.4418 H   0  0  0  0  0  0  0  0  0  0  0  0
  108.6970   67.8628   33.5315 H   0  0  0  0  0  0  0  0  0  0  0  0
  106.2965   62.1166   46.8319 H   0  0  0  0  0  0  0  0  0  0  0  0
  108.9433   61.3300   43.6689 H   0  0  0  0  0  0  0  0  0  0  0  0
  111.1377   63.6355   40.9704 H   0  0  0  0  0  0  0  0  0  0  0  0
  109.9784   68.0755   39.0427 H   0  0  0  0  0  0  0  0  0  0  0  0
  109.3090   62.9818   41.8635 H   0  0  0  0  0  0  0  0  0  0  0  0
  108.9097   65.8305   42.9266 H   0  0  0  0  0  0  0  0  0  0  0  0
  1  4  2  0
  1  5  1  0
  2  3  2  0
  2  6  1  0
  3  8  1  0
  4  9  1  0
  5 10  2  0
  6 19  2  0
  7  8  2  0
  7 19  1  0
  8 17  1  0
  9 11  2  0
  9 22  1  0
 10 11  1  0
 10 23  1  0
 11 24  1  0
 12 15  2  0
 12 16  1  0
 13 14  2  0
 13 21  1  0
 14 16  1  0
 14 22  1  0
 15 18  1  0
 15 21  1  0
 16 20  2  0
 17 18  2  0
  1 25  1  0
  2 26  1  0
  3 27  1  0
  4 28  1  0
  5 29  1  0
  6 30  1  0
  7 31  1  0
 12 32  1  0
 13 33  1  0
 17 34  1  0
 18 35  1  0
M  END
>  <Name>  (180) 
CHEMBL3623412

>  <Comment>  (180) 
 Schrodinger Suite 2021-4.

>  <s_m_entry_id>  (180) 
1236

>  <class_value>  (180) 
0

>  <s_m_Source_Path>  (180) 
C:\Users\vinicius\Desktop

>  <s_m_Source_File>  (180) 
Ligands_Saureus_o.sdf

>  <i_m_Source_File_Index>  (180) 
129

>  <r_lp_tautomer_probability>  (180) 
1

>  <r_epik_Ionization_Penalty>  (180) 
0.0023

>  <r_epik_State_Penalty>  (180) 
0.0016

>  <i_epik_Tot_Q>  (180) 
0

>  <i_f3d_flags>  (180) 
0

>  <s_m_job_name>  (180) 
Saureus_o

>  <FRED Chemgauss4 score>  (180) 
-12.404617

>  <Set>  (180) 
training

>  <HBA count>  (180) 
4

>  <HBD count>  (180) 
0

>  <ExactMolWt>  (180) 
359.01159857200025

>  <NumRotatableBounds>  (180) 
4

>  <FractionCsp3>  (180) 
0.0

>  <TPSA>  (180) 
52.33

>  <LogP_WildmanCrippen>  (180) 
5.304300000000002

>  <General_Cluster>  (180) 
4

>  <Biological_Cluster>  (180) 
2

>  <Physicochemical_Cluster>  (180) 
3

>  <Structural_Cluster>  (180) 
1

$$$$
CHEMBL3623416
     RDKit          3D

 37 39  0  0  0  0  0  0  0  0999 V2000
  109.9699   68.5489   32.0759 C   0  0  0  0  0  0  0  0  0  0  0  0
  110.6058   67.3546   32.4146 C   0  0  0  0  0  0  0  0  0  0  0  0
  109.4210   69.3543   33.0738 C   0  0  0  0  0  0  0  0  0  0  0  0
  110.6928   66.9655   33.7513 C   0  0  0  0  0  0  0  0  0  0  0  0
  109.5080   68.9653   34.4105 C   0  0  0  0  0  0  0  0  0  0  0  0
  109.5371   63.3906   42.6049 C   0  0  0  0  0  0  0  0  0  0  0  0
  108.4290   62.6919   43.0838 C   0  0  0  0  0  0  0  0  0  0  0  0
  107.2000   64.7642   43.2635 C   0  0  0  0  0  0  0  0  0  0  0  0
  110.1440   67.7709   34.7493 C   0  0  0  0  0  0  0  0  0  0  0  0
  109.4767   64.7761   42.4553 C   0  0  0  0  0  0  0  0  0  0  0  0
  107.2604   63.3786   43.4131 C   0  0  0  0  0  0  0  0  0  0  0  0
  108.3082   65.4629   42.7846 C   0  0  0  0  0  0  0  0  0  0  0  0
  111.8966   65.2288   38.4085 C   0  0  0  0  0  0  0  0  0  0  0  0
  109.7614   66.2568   39.9029 C   0  0  0  0  0  0  0  0  0  0  0  0
  110.6773   65.5966   40.6232 C   0  0  0  0  0  0  0  0  0  0  0  0
  110.9014   65.9154   37.8158 C   0  0  0  0  0  0  0  0  0  0  0  0
  111.8456   65.0207   39.8884 C   0  0  0  0  0  0  0  0  0  0  0  0
  110.8850   66.1636   36.3378 C   0  0  0  0  0  0  0  0  0  0  0  0
  109.8488   66.4228   38.5484 N   0  0  0  0  0  0  0  0  0  0  0  0
  112.7300   64.4016   40.4698 O   0  0  0  0  0  0  0  0  0  0  0  0
  110.5789   65.4362   41.9831 O   0  0  0  0  0  0  0  0  0  0  0  0
  110.2279   67.3876   36.0651 O   0  0  0  0  0  0  0  0  0  0  0  0
  105.8940   62.5153   44.0043 Cl  0  0  0  0  0  0  0  0  0  0  0  0
  108.2066   67.1760   42.6097 Cl  0  0  0  0  0  0  0  0  0  0  0  0
  109.9012   68.8557   31.0218 H   0  0  0  0  0  0  0  0  0  0  0  0
  111.0387   66.7196   31.6276 H   0  0  0  0  0  0  0  0  0  0  0  0
  108.9195   70.2962   32.8066 H   0  0  0  0  0  0  0  0  0  0  0  0
  111.1942   66.0235   34.0184 H   0  0  0  0  0  0  0  0  0  0  0  0
  109.0751   69.6004   35.1974 H   0  0  0  0  0  0  0  0  0  0  0  0
  110.4586   62.8490   42.3452 H   0  0  0  0  0  0  0  0  0  0  0  0
  108.4767   61.5993   43.2018 H   0  0  0  0  0  0  0  0  0  0  0  0
  106.2785   65.3058   43.5232 H   0  0  0  0  0  0  0  0  0  0  0  0
  112.7317   64.8284   37.8150 H   0  0  0  0  0  0  0  0  0  0  0  0
  108.8954   66.6871   40.4272 H   0  0  0  0  0  0  0  0  0  0  0  0
  111.9184   66.2126   35.9641 H   0  0  0  0  0  0  0  0  0  0  0  0
  110.3488   65.3438   35.8374 H   0  0  0  0  0  0  0  0  0  0  0  0
  109.1057   66.9428   38.0602 H   0  0  0  0  0  0  0  0  0  0  0  0
  1  2  2  0
  1  3  1  0
  2  4  1  0
  3  5  2  0
  4  9  2  0
  5  9  1  0
  6  7  2  0
  6 10  1  0
  7 11  1  0
  8 11  2  0
  8 12  1  0
  9 22  1  0
 10 12  2  0
 10 21  1  0
 11 23  1  0
 12 24  1  0
 13 16  2  0
 13 17  1  0
 14 15  2  0
 14 19  1  0
 15 17  1  0
 15 21  1  0
 16 18  1  0
 16 19  1  0
 17 20  2  0
 18 22  1  0
  1 25  1  0
  2 26  1  0
  3 27  1  0
  4 28  1  0
  5 29  1  0
  6 30  1  0
  7 31  1  0
  8 32  1  0
 13 33  1  0
 14 34  1  0
 18 35  1  0
 18 36  1  0
 19 37  1  0
M  END
>  <Name>  (181) 
CHEMBL3623416

>  <Comment>  (181) 
 Schrodinger Suite 2021-4.

>  <s_m_entry_id>  (181) 
1216

>  <class_value>  (181) 
0

>  <s_m_Source_Path>  (181) 
C:\Users\vinicius\Desktop

>  <s_m_Source_File>  (181) 
Ligands_Saureus_o.sdf

>  <i_m_Source_File_Index>  (181) 
112

>  <r_lp_tautomer_probability>  (181) 
0.972255101557691

>  <r_epik_Ionization_Penalty>  (181) 
0.0871

>  <r_epik_State_Penalty>  (181) 
0.2037

>  <i_epik_Tot_Q>  (181) 
0

>  <i_f3d_flags>  (181) 
0

>  <s_m_job_name>  (181) 
Saureus_o

>  <FRED Chemgauss4 score>  (181) 
-13.835555

>  <Set>  (181) 
training

>  <HBA count>  (181) 
3

>  <HBD count>  (181) 
1

>  <ExactMolWt>  (181) 
361.0272486360003

>  <NumRotatableBounds>  (181) 
5

>  <FractionCsp3>  (181) 
0.05555555555555555

>  <TPSA>  (181) 
51.32000000000001

>  <LogP_WildmanCrippen>  (181) 
5.053000000000003

>  <General_Cluster>  (181) 
4

>  <Biological_Cluster>  (181) 
2

>  <Physicochemical_Cluster>  (181) 
3

>  <Structural_Cluster>  (181) 
1

$$$$
CHEMBL296932
     RDKit          3D

 49 51  0  0  0  0  0  0  0  0999 V2000
  111.9352   72.7831   34.5824 C   0  0  0  0  0  0  0  0  0  0  0  0
  111.4845   72.7983   33.2639 C   0  0  0  0  0  0  0  0  0  0  0  0
  111.7806   71.6428   35.3791 C   0  0  0  0  0  0  0  0  0  0  0  0
  112.1576   65.8735   40.1797 C   0  0  0  0  0  0  0  0  0  0  0  0
  110.8667   71.6782   32.7004 C   0  0  0  0  0  0  0  0  0  0  0  0
  111.7873   66.2354   41.4701 C   0  0  0  0  0  0  0  0  0  0  0  0
  110.8462   69.2078   35.3351 C   0  0  0  0  0  0  0  0  0  0  0  0
  110.2632   67.0552   39.3604 C   0  0  0  0  0  0  0  0  0  0  0  0
  111.1606   70.5015   34.8327 C   0  0  0  0  0  0  0  0  0  0  0  0
  111.3864   66.2871   39.0992 C   0  0  0  0  0  0  0  0  0  0  0  0
  110.7189   70.5454   33.5086 C   0  0  0  0  0  0  0  0  0  0  0  0
  110.2309   68.5046   34.3253 C   0  0  0  0  0  0  0  0  0  0  0  0
  110.6462   67.0059   41.6252 C   0  0  0  0  0  0  0  0  0  0  0  0
  111.7521   65.9201   37.7198 C   0  0  0  0  0  0  0  0  0  0  0  0
  110.9061   65.9324   36.6790 C   0  0  0  0  0  0  0  0  0  0  0  0
  111.3902   65.5063   35.3328 C   0  0  0  0  0  0  0  0  0  0  0  0
  109.1839   68.1301   43.3347 C   0  0  0  0  0  0  0  0  0  0  0  0
  109.1417   68.2882   44.8339 C   0  0  0  0  0  0  0  0  0  0  0  0
  109.5782   68.9468   31.9537 C   0  0  0  0  0  0  0  0  0  0  0  0
  111.1647   65.7242   32.8878 C   0  0  0  0  0  0  0  0  0  0  0  0
  109.6974   67.1012   34.3183 C   0  0  0  0  0  0  0  0  0  0  0  0
  109.8718   67.4266   40.5999 N   0  0  0  0  0  0  0  0  0  0  0  0
  110.1588   69.3196   33.2276 N   0  0  0  0  0  0  0  0  0  0  0  0
  110.2818   67.3654   42.9283 N   0  0  0  0  0  0  0  0  0  0  0  0
  110.7681   66.1095   34.2360 N   0  0  0  0  0  0  0  0  0  0  0  0
  112.2719   64.6508   35.2422 O   0  0  0  0  0  0  0  0  0  0  0  0
  108.3215   68.6376   42.6250 O   0  0  0  0  0  0  0  0  0  0  0  0
  112.4182   73.6779   35.0020 H   0  0  0  0  0  0  0  0  0  0  0  0
  111.6170   73.7061   32.6570 H   0  0  0  0  0  0  0  0  0  0  0  0
  112.1387   71.6376   36.4192 H   0  0  0  0  0  0  0  0  0  0  0  0
  113.0571   65.2624   40.0143 H   0  0  0  0  0  0  0  0  0  0  0  0
  110.5098   71.6869   31.6599 H   0  0  0  0  0  0  0  0  0  0  0  0
  112.3815   65.9200   42.3404 H   0  0  0  0  0  0  0  0  0  0  0  0
  111.0572   68.8366   36.3489 H   0  0  0  0  0  0  0  0  0  0  0  0
  109.6522   67.3830   38.5064 H   0  0  0  0  0  0  0  0  0  0  0  0
  112.7917   65.6146   37.5303 H   0  0  0  0  0  0  0  0  0  0  0  0
  109.8632   66.2541   36.8165 H   0  0  0  0  0  0  0  0  0  0  0  0
  109.3973   67.3305   45.3109 H   0  0  0  0  0  0  0  0  0  0  0  0
  109.8663   69.0563   45.1421 H   0  0  0  0  0  0  0  0  0  0  0  0
  108.1307   68.5931   45.1421 H   0  0  0  0  0  0  0  0  0  0  0  0
  108.6639   68.3597   32.1252 H   0  0  0  0  0  0  0  0  0  0  0  0
  109.3297   69.8546   31.3843 H   0  0  0  0  0  0  0  0  0  0  0  0
  110.3002   68.3430   31.3843 H   0  0  0  0  0  0  0  0  0  0  0  0
  111.9527   64.9586   32.9421 H   0  0  0  0  0  0  0  0  0  0  0  0
  110.2945   65.3174   32.3518 H   0  0  0  0  0  0  0  0  0  0  0  0
  111.5462   66.6057   32.3518 H   0  0  0  0  0  0  0  0  0  0  0  0
  109.1278   66.9330   35.2442 H   0  0  0  0  0  0  0  0  0  0  0  0
  109.0574   66.9851   33.4312 H   0  0  0  0  0  0  0  0  0  0  0  0
  110.8981   67.0248   43.6800 H   0  0  0  0  0  0  0  0  0  0  0  0
  1  2  2  0
  1  3  1  0
  2  5  1  0
  3  9  2  0
  4  6  2  0
  4 10  1  0
  5 11  2  0
  6 13  1  0
  7  9  1  0
  7 12  2  0
  8 10  2  0
  8 22  1  0
  9 11  1  0
 10 14  1  0
 11 23  1  0
 12 21  1  0
 12 23  1  0
 13 22  2  0
 13 24  1  0
 14 15  2  0
 15 16  1  0
 16 25  1  0
 16 26  2  0
 17 18  1  0
 17 24  1  0
 17 27  2  0
 19 23  1  0
 20 25  1  0
 21 25  1  0
  1 28  1  0
  2 29  1  0
  3 30  1  0
  4 31  1  0
  5 32  1  0
  6 33  1  0
  7 34  1  0
  8 35  1  0
 14 36  1  0
 15 37  1  0
 18 38  1  0
 18 39  1  0
 18 40  1  0
 19 41  1  0
 19 42  1  0
 19 43  1  0
 20 44  1  0
 20 45  1  0
 20 46  1  0
 21 47  1  0
 21 48  1  0
 24 49  1  0
M  END
>  <Name>  (182) 
CHEMBL296932

>  <Comment>  (182) 
 Schrodinger Suite 2021-4.

>  <s_m_entry_id>  (182) 
1150

>  <class_value>  (182) 
1

>  <s_m_Source_Path>  (182) 
C:\Users\vinicius\Desktop

>  <s_m_Source_File>  (182) 
Ligands_Saureus_o.sdf

>  <i_m_Source_File_Index>  (182) 
61

>  <r_lp_tautomer_probability>  (182) 
1

>  <r_epik_Ionization_Penalty>  (182) 
0.0001

>  <r_epik_State_Penalty>  (182) 
0

>  <i_epik_Tot_Q>  (182) 
0

>  <i_f3d_flags>  (182) 
0

>  <s_m_job_name>  (182) 
Saureus_o

>  <FRED Chemgauss4 score>  (182) 
-16.541689

>  <Set>  (182) 
training

>  <HBA count>  (182) 
4

>  <HBD count>  (182) 
1

>  <ExactMolWt>  (182) 
362.17427594400067

>  <NumRotatableBounds>  (182) 
8

>  <FractionCsp3>  (182) 
0.19047619047619047

>  <TPSA>  (182) 
67.23

>  <LogP_WildmanCrippen>  (182) 
3.203500000000001

>  <General_Cluster>  (182) 
1

>  <Biological_Cluster>  (182) 
1

>  <Physicochemical_Cluster>  (182) 
1

>  <Structural_Cluster>  (182) 
2

$$$$
FULL_M3
     RDKit          3D

 61 64  0  0  1  0  0  0  0  0999 V2000
  111.4668   72.3148   33.7410 C   0  0  0  0  0  0  0  0  0  0  0  0
  111.1573   72.0207   32.4145 C   0  0  0  0  0  0  0  0  0  0  0  0
  111.4366   71.3167   34.7218 C   0  0  0  0  0  0  0  0  0  0  0  0
  111.3501   64.1582   38.5377 C   0  0  0  0  0  0  0  0  0  0  0  0
  111.1152   63.8875   39.8832 C   0  0  0  0  0  0  0  0  0  0  0  0
  110.8087   70.7240   32.0261 C   0  0  0  0  0  0  0  0  0  0  0  0
  110.9585   68.7753   35.0635 C   0  0  0  0  0  0  0  0  0  0  0  0
  110.4357   66.3631   38.8468 C   0  0  0  0  0  0  0  0  0  0  0  0
  111.0880   70.0020   34.3540 C   0  0  0  0  0  0  0  0  0  0  0  0
  111.0070   65.3974   38.0173 C   0  0  0  0  0  0  0  0  0  0  0  0
  110.5305   64.8503   40.7291 C   0  0  0  0  0  0  0  0  0  0  0  0
  110.7826   69.7365   33.0173 C   0  0  0  0  0  0  0  0  0  0  0  0
  110.1923   66.1206   40.2145 C   0  0  0  0  0  0  0  0  0  0  0  0
  110.5838   67.8070   34.1608 C   0  0  0  0  0  0  0  0  0  0  0  0
  108.4522   66.0487   42.7783 C   0  0  0  0  0  0  0  0  0  0  0  0
  111.2447   65.6916   36.6132 C   0  0  0  0  0  0  0  0  0  0  0  0
  108.7013   68.6039   44.3133 C   0  0  0  0  0  0  0  0  0  0  0  0
  110.3082   64.4742   42.1741 C   0  0  0  0  0  0  0  0  0  0  0  0
  109.4378   67.1514   42.3992 C   0  0  2  0  0  0  0  0  0  0  0  0
  110.1080   67.7096   31.7093 C   0  0  0  0  0  0  0  0  0  0  0  0
  108.0571   63.6277   42.9014 C   0  0  0  0  0  0  0  0  0  0  0  0
  108.7865   66.0655   36.2983 C   0  0  0  0  0  0  0  0  0  0  0  0
  107.3533   69.6694   45.9400 C   0  0  0  0  0  0  0  0  0  0  0  0
  110.3114   66.3463   34.3761 C   0  0  0  0  0  0  0  0  0  0  0  0
  108.9121   68.5243   42.8239 C   0  0  0  0  0  0  0  0  0  0  0  0
  110.4805   68.3962   32.9293 N   0  0  0  0  0  0  0  0  0  0  0  0
  109.6259   67.1480   40.9572 N   0  0  0  0  0  0  0  0  0  0  0  0
  108.9412   64.7496   42.6173 N   0  0  0  0  0  0  0  0  0  0  0  0
  110.1512   66.0228   35.7921 N   0  0  0  0  0  0  0  0  0  0  0  0
  107.3170   66.3106   43.1793 O   0  0  0  0  0  0  0  0  0  0  0  0
  112.4180   65.6446   36.2202 O   0  0  0  0  0  0  0  0  0  0  0  0
  109.3369   67.9865   45.1568 O   0  0  0  0  0  0  0  0  0  0  0  0
  107.6821   69.4796   44.5600 O   0  0  0  0  0  0  0  0  0  0  0  0
  111.7380   73.3435   34.0206 H   0  0  0  0  0  0  0  0  0  0  0  0
  111.1878   72.8217   31.6611 H   0  0  0  0  0  0  0  0  0  0  0  0
  111.6820   71.5558   35.7671 H   0  0  0  0  0  0  0  0  0  0  0  0
  111.8052   63.3936   37.8910 H   0  0  0  0  0  0  0  0  0  0  0  0
  111.3910   62.9046   40.2928 H   0  0  0  0  0  0  0  0  0  0  0  0
  110.5639   70.4885   30.9799 H   0  0  0  0  0  0  0  0  0  0  0  0
  111.1276   68.6277   36.1404 H   0  0  0  0  0  0  0  0  0  0  0  0
  110.1675   67.3416   38.4217 H   0  0  0  0  0  0  0  0  0  0  0  0
  110.5090   63.3994   42.2945 H   0  0  0  0  0  0  0  0  0  0  0  0
  110.9891   65.0822   42.7879 H   0  0  0  0  0  0  0  0  0  0  0  0
  110.3903   66.9602   42.9152 H   0  0  0  0  0  0  0  0  0  0  0  0
  109.5972   66.7681   31.9597 H   0  0  0  0  0  0  0  0  0  0  0  0
  109.4325   68.3480   31.1209 H   0  0  0  0  0  0  0  0  0  0  0  0
  111.0114   67.4914   31.1209 H   0  0  0  0  0  0  0  0  0  0  0  0
  107.9597   63.5041   43.9901 H   0  0  0  0  0  0  0  0  0  0  0  0
  107.0665   63.8217   42.4643 H   0  0  0  0  0  0  0  0  0  0  0  0
  108.4773   62.7099   42.4643 H   0  0  0  0  0  0  0  0  0  0  0  0
  108.8032   66.0650   37.3982 H   0  0  0  0  0  0  0  0  0  0  0  0
  108.2908   66.9796   35.9396 H   0  0  0  0  0  0  0  0  0  0  0  0
  108.2346   65.1842   35.9396 H   0  0  0  0  0  0  0  0  0  0  0  0
  108.1351   69.2181   46.5686 H   0  0  0  0  0  0  0  0  0  0  0  0
  107.2851   70.7458   46.1560 H   0  0  0  0  0  0  0  0  0  0  0  0
  106.3870   69.1901   46.1560 H   0  0  0  0  0  0  0  0  0  0  0  0
  109.3883   66.0747   33.8430 H   0  0  0  0  0  0  0  0  0  0  0  0
  111.1730   65.7797   33.9932 H   0  0  0  0  0  0  0  0  0  0  0  0
  107.9535   68.7112   42.3177 H   0  0  0  0  0  0  0  0  0  0  0  0
  109.6603   69.2800   42.5426 H   0  0  0  0  0  0  0  0  0  0  0  0
  109.3110   67.9818   40.4409 H   0  0  0  0  0  0  0  0  0  0  0  0
  1  2  2  0
  1  3  1  0
  2  6  1  0
  3  9  2  0
  4  5  2  0
  4 10  1  0
  5 11  1  0
  6 12  2  0
  7  9  1  0
  7 14  2  0
  8 10  2  0
  8 13  1  0
  9 12  1  0
 10 16  1  0
 11 13  2  0
 11 18  1  0
 12 26  1  0
 13 27  1  0
 14 24  1  0
 14 26  1  0
 15 19  1  0
 15 28  1  0
 15 30  2  0
 16 29  1  0
 16 31  2  0
 17 25  1  0
 17 32  2  0
 17 33  1  0
 18 28  1  0
 19 25  1  0
 19 27  1  0
 20 26  1  0
 21 28  1  0
 22 29  1  0
 23 33  1  0
 24 29  1  0
  1 34  1  0
  2 35  1  0
  3 36  1  0
  4 37  1  0
  5 38  1  0
  6 39  1  0
  7 40  1  0
  8 41  1  0
 18 42  1  0
 18 43  1  0
 19 44  1  1
 20 45  1  0
 20 46  1  0
 20 47  1  0
 21 48  1  0
 21 49  1  0
 21 50  1  0
 22 51  1  0
 22 52  1  0
 22 53  1  0
 23 54  1  0
 23 55  1  0
 23 56  1  0
 24 57  1  0
 24 58  1  0
 25 59  1  0
 25 60  1  0
 27 61  1  0
M  END
>  <Name>  (183) 
FULL_M3

>  <Comment>  (183) 
 Schrodinger Suite 2021-4.

>  <s_m_entry_id>  (183) 
1362

>  <class_value>  (183) 
0

>  <s_m_Source_Path>  (183) 
C:\Users\vinicius\Desktop

>  <s_m_Source_File>  (183) 
Ligands_Saureus_o.sdf

>  <i_m_Source_File_Index>  (183) 
213

>  <r_lp_tautomer_probability>  (183) 
1

>  <r_epik_Ionization_Penalty>  (183) 
0

>  <r_epik_State_Penalty>  (183) 
0

>  <i_epik_Tot_Q>  (183) 
0

>  <i_f3d_flags>  (183) 
0

>  <s_m_job_name>  (183) 
Saureus_o

>  <FRED Chemgauss4 score>  (183) 
-13.023114

>  <Set>  (183) 
training

>  <HBA count>  (183) 
6

>  <HBD count>  (183) 
1

>  <ExactMolWt>  (183) 
448.2110553760008

>  <NumRotatableBounds>  (183) 
9

>  <FractionCsp3>  (183) 
0.32

>  <TPSA>  (183) 
83.88000000000001

>  <LogP_WildmanCrippen>  (183) 
2.7661000000000007

>  <General_Cluster>  (183) 
5

>  <Biological_Cluster>  (183) 
2

>  <Physicochemical_Cluster>  (183) 
4

>  <Structural_Cluster>  (183) 
4

$$$$
CHEMBL3623401
     RDKit          3D

 36 38  0  0  0  0  0  0  0  0999 V2000
  109.8668   69.2440   32.1426 C   0  0  0  0  0  0  0  0  0  0  0  0
  110.0539   64.2096   41.9337 C   0  0  0  0  0  0  0  0  0  0  0  0
  109.1726   63.2401   42.4122 C   0  0  0  0  0  0  0  0  0  0  0  0
  109.7864   69.3699   33.5596 C   0  0  0  0  0  0  0  0  0  0  0  0
  107.9067   64.9534   43.5520 C   0  0  0  0  0  0  0  0  0  0  0  0
  110.3054   67.9960   31.7580 C   0  0  0  0  0  0  0  0  0  0  0  0
  108.7880   65.9229   43.0735 C   0  0  0  0  0  0  0  0  0  0  0  0
  109.8617   65.5510   42.2644 C   0  0  0  0  0  0  0  0  0  0  0  0
  108.0990   63.6120   43.2213 C   0  0  0  0  0  0  0  0  0  0  0  0
  110.1664   68.2131   34.2041 C   0  0  0  0  0  0  0  0  0  0  0  0
  111.9083   65.9696   38.2248 C   0  0  0  0  0  0  0  0  0  0  0  0
  110.0760   67.4375   39.7109 C   0  0  0  0  0  0  0  0  0  0  0  0
  110.8453   66.6047   40.4222 C   0  0  0  0  0  0  0  0  0  0  0  0
  111.0692   66.8438   37.6603 C   0  0  0  0  0  0  0  0  0  0  0  0
  111.8474   65.7888   39.6942 C   0  0  0  0  0  0  0  0  0  0  0  0
  110.2197   67.9429   35.6514 C   0  0  0  0  0  0  0  0  0  0  0  0
  111.0603   67.0819   36.2418 C   0  0  0  0  0  0  0  0  0  0  0  0
  108.5684   67.3538   43.4392 C   0  0  0  0  0  0  0  0  0  0  0  0
  112.5898   65.0032   40.2714 O   0  0  0  0  0  0  0  0  0  0  0  0
  110.1417   67.5982   38.3471 O   0  0  0  0  0  0  0  0  0  0  0  0
  110.7355   66.4894   41.7870 O   0  0  0  0  0  0  0  0  0  0  0  0
  110.6180   66.9824   33.1024 S   0  0  0  0  0  0  0  0  0  0  0  0
  107.0114   62.4164   43.8119 Cl  0  0  0  0  0  0  0  0  0  0  0  0
  109.6089   70.0488   31.4385 H   0  0  0  0  0  0  0  0  0  0  0  0
  110.9005   63.9163   41.2955 H   0  0  0  0  0  0  0  0  0  0  0  0
  109.3243   62.1823   42.1515 H   0  0  0  0  0  0  0  0  0  0  0  0
  109.4594   70.2833   34.0780 H   0  0  0  0  0  0  0  0  0  0  0  0
  107.0601   65.2467   44.1901 H   0  0  0  0  0  0  0  0  0  0  0  0
  110.4391   67.6870   30.7108 H   0  0  0  0  0  0  0  0  0  0  0  0
  112.6247   65.3998   37.6149 H   0  0  0  0  0  0  0  0  0  0  0  0
  109.3354   68.0386   40.2587 H   0  0  0  0  0  0  0  0  0  0  0  0
  109.5161   68.4894   36.2966 H   0  0  0  0  0  0  0  0  0  0  0  0
  111.7760   66.5323   35.6128 H   0  0  0  0  0  0  0  0  0  0  0  0
  108.5530   67.4541   44.5345 H   0  0  0  0  0  0  0  0  0  0  0  0
  109.3830   67.9670   43.0263 H   0  0  0  0  0  0  0  0  0  0  0  0
  107.6075   67.6945   43.0263 H   0  0  0  0  0  0  0  0  0  0  0  0
  1  4  1  0
  1  6  2  0
  2  3  2  0
  2  8  1  0
  3  9  1  0
  4 10  2  0
  5  7  1  0
  5  9  2  0
  6 22  1  0
  7  8  2  0
  7 18  1  0
  8 21  1  0
  9 23  1  0
 10 16  1  0
 10 22  1  0
 11 14  2  0
 11 15  1  0
 12 13  2  0
 12 20  1  0
 13 15  1  0
 13 21  1  0
 14 17  1  0
 14 20  1  0
 15 19  2  0
 16 17  2  0
  1 24  1  0
  2 25  1  0
  3 26  1  0
  4 27  1  0
  5 28  1  0
  6 29  1  0
 11 30  1  0
 12 31  1  0
 16 32  1  0
 17 33  1  0
 18 34  1  0
 18 35  1  0
 18 36  1  0
M  END
>  <Name>  (184) 
CHEMBL3623401

>  <Comment>  (184) 
 Schrodinger Suite 2021-4.

>  <s_m_entry_id>  (184) 
1244

>  <class_value>  (184) 
0

>  <s_m_Source_Path>  (184) 
C:\Users\vinicius\Desktop

>  <s_m_Source_File>  (184) 
Ligands_Saureus_o.sdf

>  <i_m_Source_File_Index>  (184) 
137

>  <r_lp_tautomer_probability>  (184) 
1

>  <r_epik_Ionization_Penalty>  (184) 
0

>  <r_epik_State_Penalty>  (184) 
0

>  <i_epik_Tot_Q>  (184) 
0

>  <i_f3d_flags>  (184) 
0

>  <s_m_job_name>  (184) 
Saureus_o

>  <FRED Chemgauss4 score>  (184) 
-11.281753

>  <Set>  (184) 
training

>  <HBA count>  (184) 
4

>  <HBD count>  (184) 
0

>  <ExactMolWt>  (184) 
344.02739295600037

>  <NumRotatableBounds>  (184) 
5

>  <FractionCsp3>  (184) 
0.05555555555555555

>  <TPSA>  (184) 
39.44

>  <LogP_WildmanCrippen>  (184) 
5.625820000000004

>  <General_Cluster>  (184) 
4

>  <Biological_Cluster>  (184) 
2

>  <Physicochemical_Cluster>  (184) 
3

>  <Structural_Cluster>  (184) 
1

$$$$
CHEMBL3676395
     RDKit          3D

 37 39  0  0  0  0  0  0  0  0999 V2000
  109.8946   66.8775   39.6824 C   0  0  0  0  0  0  0  0  0  0  0  0
  112.1182   66.2707   40.2561 C   0  0  0  0  0  0  0  0  0  0  0  0
  111.1350   66.3900   39.2898 C   0  0  0  0  0  0  0  0  0  0  0  0
  109.6693   67.2091   41.0192 C   0  0  0  0  0  0  0  0  0  0  0  0
  110.7215   67.0479   41.9200 C   0  0  0  0  0  0  0  0  0  0  0  0
  109.3023   67.7311   43.8185 C   0  0  0  0  0  0  0  0  0  0  0  0
  111.3961   66.0314   37.9078 C   0  0  0  0  0  0  0  0  0  0  0  0
  110.6906   66.4554   36.8327 C   0  0  0  0  0  0  0  0  0  0  0  0
  110.9893   66.0546   35.4436 C   0  0  0  0  0  0  0  0  0  0  0  0
  108.3796   67.8269   41.4674 C   0  0  0  0  0  0  0  0  0  0  0  0
  108.1010   67.4971   42.9253 C   0  0  0  0  0  0  0  0  0  0  0  0
  110.1380   67.7487   32.3003 C   0  0  0  0  0  0  0  0  0  0  0  0
  110.2038   68.9403   33.2457 C   0  0  0  0  0  0  0  0  0  0  0  0
  110.9226   66.6827   33.0485 C   0  0  0  0  0  0  0  0  0  0  0  0
  110.0862   68.2950   34.6198 C   0  0  0  0  0  0  0  0  0  0  0  0
  111.9446   66.5943   41.5570 N   0  0  0  0  0  0  0  0  0  0  0  0
  110.5250   67.3994   43.2692 N   0  0  0  0  0  0  0  0  0  0  0  0
  110.6779   66.9681   34.4558 N   0  0  0  0  0  0  0  0  0  0  0  0
  109.1692   68.1019   44.9847 O   0  0  0  0  0  0  0  0  0  0  0  0
  111.4869   64.9476   35.2401 O   0  0  0  0  0  0  0  0  0  0  0  0
  109.0916   67.0019   38.9410 H   0  0  0  0  0  0  0  0  0  0  0  0
  113.1022   65.8888   39.9464 H   0  0  0  0  0  0  0  0  0  0  0  0
  112.2423   65.3551   37.7169 H   0  0  0  0  0  0  0  0  0  0  0  0
  109.8456   67.1384   37.0043 H   0  0  0  0  0  0  0  0  0  0  0  0
  108.4429   68.9188   41.3504 H   0  0  0  0  0  0  0  0  0  0  0  0
  107.5623   67.4227   40.8520 H   0  0  0  0  0  0  0  0  0  0  0  0
  107.8101   66.4387   42.9971 H   0  0  0  0  0  0  0  0  0  0  0  0
  107.2970   68.1646   43.2688 H   0  0  0  0  0  0  0  0  0  0  0  0
  109.0979   67.4317   32.1339 H   0  0  0  0  0  0  0  0  0  0  0  0
  110.5401   67.9638   31.2993 H   0  0  0  0  0  0  0  0  0  0  0  0
  111.1590   69.4757   33.1409 H   0  0  0  0  0  0  0  0  0  0  0  0
  109.4237   69.6911   33.0514 H   0  0  0  0  0  0  0  0  0  0  0  0
  110.5596   65.6778   32.7870 H   0  0  0  0  0  0  0  0  0  0  0  0
  111.9938   66.7001   32.7989 H   0  0  0  0  0  0  0  0  0  0  0  0
  110.6402   68.8771   35.3709 H   0  0  0  0  0  0  0  0  0  0  0  0
  109.0447   68.2469   34.9704 H   0  0  0  0  0  0  0  0  0  0  0  0
  111.3484   67.4098   43.8879 H   0  0  0  0  0  0  0  0  0  0  0  0
  1  3  2  0
  1  4  1  0
  2  3  1  0
  2 16  2  0
  3  7  1  0
  4  5  2  0
  4 10  1  0
  5 16  1  0
  5 17  1  0
  6 11  1  0
  6 17  1  0
  6 19  2  0
  7  8  2  0
  8  9  1  0
  9 18  1  0
  9 20  2  0
 10 11  1  0
 12 13  1  0
 12 14  1  0
 13 15  1  0
 14 18  1  0
 15 18  1  0
  1 21  1  0
  2 22  1  0
  7 23  1  0
  8 24  1  0
 10 25  1  0
 10 26  1  0
 11 27  1  0
 11 28  1  0
 12 29  1  0
 12 30  1  0
 13 31  1  0
 13 32  1  0
 14 33  1  0
 14 34  1  0
 15 35  1  0
 15 36  1  0
 17 37  1  0
M  END
>  <Name>  (185) 
CHEMBL3676395

>  <Comment>  (185) 
 Schrodinger Suite 2021-4.

>  <s_m_entry_id>  (185) 
1252

>  <class_value>  (185) 
0

>  <s_m_Source_Path>  (185) 
C:\Users\vinicius\Desktop

>  <s_m_Source_File>  (185) 
Ligands_Saureus_o.sdf

>  <i_m_Source_File_Index>  (185) 
144

>  <r_lp_tautomer_probability>  (185) 
1

>  <r_epik_Ionization_Penalty>  (185) 
0.0002

>  <r_epik_State_Penalty>  (185) 
0

>  <i_epik_Tot_Q>  (185) 
0

>  <i_f3d_flags>  (185) 
0

>  <s_m_job_name>  (185) 
Saureus_o

>  <FRED Chemgauss4 score>  (185) 
-13.668010

>  <Set>  (185) 
training

>  <HBA count>  (185) 
3

>  <HBD count>  (185) 
1

>  <ExactMolWt>  (185) 
271.13207678400045

>  <NumRotatableBounds>  (185) 
2

>  <FractionCsp3>  (185) 
0.4

>  <TPSA>  (185) 
62.300000000000004

>  <LogP_WildmanCrippen>  (185) 
1.6018999999999997

>  <General_Cluster>  (185) 
2

>  <Biological_Cluster>  (185) 
2

>  <Physicochemical_Cluster>  (185) 
2

>  <Structural_Cluster>  (185) 
3

$$$$
CHEMBL293255
     RDKit          3D

 35 37  0  0  0  0  0  0  0  0999 V2000
  110.2811   66.1654   34.0292 C   0  0  0  0  0  0  0  0  0  0  0  0
  110.5189   65.7040   35.3238 C   0  0  0  0  0  0  0  0  0  0  0  0
  107.2708   66.6080   41.9246 C   0  0  0  0  0  0  0  0  0  0  0  0
  107.9321   64.4837   42.8666 C   0  0  0  0  0  0  0  0  0  0  0  0
  108.5769   66.8186   41.4827 C   0  0  0  0  0  0  0  0  0  0  0  0
  109.2382   64.6943   42.4246 C   0  0  0  0  0  0  0  0  0  0  0  0
  110.2891   67.5350   33.7645 C   0  0  0  0  0  0  0  0  0  0  0  0
  110.6890   66.7273   38.8459 C   0  0  0  0  0  0  0  0  0  0  0  0
  111.6107   64.7620   39.2267 C   0  0  0  0  0  0  0  0  0  0  0  0
  110.7648   66.6120   36.3538 C   0  0  0  0  0  0  0  0  0  0  0  0
  106.9484   65.4406   42.6167 C   0  0  0  0  0  0  0  0  0  0  0  0
  109.5605   65.8618   41.7326 C   0  0  0  0  0  0  0  0  0  0  0  0
  110.5349   68.4430   34.7944 C   0  0  0  0  0  0  0  0  0  0  0  0
  110.7728   67.9815   36.0890 C   0  0  0  0  0  0  0  0  0  0  0  0
  111.0023   66.0829   37.6724 C   0  0  0  0  0  0  0  0  0  0  0  0
  105.5522   65.2146   43.0896 C   0  0  0  0  0  0  0  0  0  0  0  0
  110.9690   66.0890   41.2539 C   0  0  0  0  0  0  0  0  0  0  0  0
  111.5755   64.8600   37.9163 N   0  0  0  0  0  0  0  0  0  0  0  0
  111.0841   65.8687   39.8328 N   0  0  0  0  0  0  0  0  0  0  0  0
  110.5284   70.1253   34.3913 Cl  0  0  0  0  0  0  0  0  0  0  0  0
  111.0799   69.1089   37.3777 Cl  0  0  0  0  0  0  0  0  0  0  0  0
  110.0873   65.4493   33.2170 H   0  0  0  0  0  0  0  0  0  0  0  0
  110.5125   64.6240   35.5326 H   0  0  0  0  0  0  0  0  0  0  0  0
  106.4950   67.3625   41.7273 H   0  0  0  0  0  0  0  0  0  0  0  0
  107.6778   63.5630   43.4122 H   0  0  0  0  0  0  0  0  0  0  0  0
  108.8312   67.7393   40.9371 H   0  0  0  0  0  0  0  0  0  0  0  0
  110.0140   63.9398   42.6217 H   0  0  0  0  0  0  0  0  0  0  0  0
  110.1016   67.8989   32.7435 H   0  0  0  0  0  0  0  0  0  0  0  0
  110.2228   67.7166   38.9643 H   0  0  0  0  0  0  0  0  0  0  0  0
  112.0148   63.8949   39.7697 H   0  0  0  0  0  0  0  0  0  0  0  0
  105.5336   65.2116   44.1894 H   0  0  0  0  0  0  0  0  0  0  0  0
  104.9031   66.0194   42.7141 H   0  0  0  0  0  0  0  0  0  0  0  0
  105.1901   64.2462   42.7141 H   0  0  0  0  0  0  0  0  0  0  0  0
  111.2612   67.1251   41.4802 H   0  0  0  0  0  0  0  0  0  0  0  0
  111.6290   65.3758   41.7693 H   0  0  0  0  0  0  0  0  0  0  0  0
  1  2  2  0
  1  7  1  0
  2 10  1  0
  3  5  2  0
  3 11  1  0
  4  6  1  0
  4 11  2  0
  5 12  1  0
  6 12  2  0
  7 13  2  0
  8 15  2  0
  8 19  1  0
  9 18  2  0
  9 19  1  0
 10 14  2  0
 10 15  1  0
 11 16  1  0
 12 17  1  0
 13 14  1  0
 13 20  1  0
 14 21  1  0
 15 18  1  0
 17 19  1  0
  1 22  1  0
  2 23  1  0
  3 24  1  0
  4 25  1  0
  5 26  1  0
  6 27  1  0
  7 28  1  0
  8 29  1  0
  9 30  1  0
 16 31  1  0
 16 32  1  0
 16 33  1  0
 17 34  1  0
 17 35  1  0
M  END
>  <Name>  (186) 
CHEMBL293255

>  <Comment>  (186) 
 Schrodinger Suite 2021-4.

>  <s_m_entry_id>  (186) 
1311

>  <class_value>  (186) 
0

>  <s_m_Source_Path>  (186) 
C:\Users\vinicius\Desktop

>  <s_m_Source_File>  (186) 
Ligands_Saureus_o.sdf

>  <i_m_Source_File_Index>  (186) 
185

>  <r_lp_tautomer_probability>  (186) 
1

>  <r_epik_Ionization_Penalty>  (186) 
0.0665

>  <r_epik_State_Penalty>  (186) 
0.058

>  <i_epik_Tot_Q>  (186) 
0

>  <i_f3d_flags>  (186) 
0

>  <s_m_job_name>  (186) 
Saureus_o

>  <FRED Chemgauss4 score>  (186) 
-13.066290

>  <Set>  (186) 
training

>  <HBA count>  (186) 
2

>  <HBD count>  (186) 
0

>  <ExactMolWt>  (186) 
316.0534038080004

>  <NumRotatableBounds>  (186) 
4

>  <FractionCsp3>  (186) 
0.11764705882352941

>  <TPSA>  (186) 
17.82

>  <LogP_WildmanCrippen>  (186) 
5.213620000000003

>  <General_Cluster>  (186) 
4

>  <Biological_Cluster>  (186) 
2

>  <Physicochemical_Cluster>  (186) 
3

>  <Structural_Cluster>  (186) 
1

$$$$
CHEMBL1652621
     RDKit          3D

 49 52  0  0  0  0  0  0  0  0999 V2000
  112.1123   72.6678   33.9698 C   0  0  0  0  0  0  0  0  0  0  0  0
  112.4638   72.3532   35.2849 C   0  0  0  0  0  0  0  0  0  0  0  0
  111.3839   71.7669   33.1808 C   0  0  0  0  0  0  0  0  0  0  0  0
  112.1023   71.1310   35.8596 C   0  0  0  0  0  0  0  0  0  0  0  0
  110.1189   66.8554   39.6780 C   0  0  0  0  0  0  0  0  0  0  0  0
  112.2295   66.0636   40.4261 C   0  0  0  0  0  0  0  0  0  0  0  0
  111.0096   70.5319   33.7385 C   0  0  0  0  0  0  0  0  0  0  0  0
  111.3210   66.2193   39.3942 C   0  0  0  0  0  0  0  0  0  0  0  0
  109.8709   67.3303   40.9668 C   0  0  0  0  0  0  0  0  0  0  0  0
  110.2959   69.3893   33.2903 C   0  0  0  0  0  0  0  0  0  0  0  0
  111.3787   70.2563   35.0512 C   0  0  0  0  0  0  0  0  0  0  0  0
  110.2773   68.5055   34.3445 C   0  0  0  0  0  0  0  0  0  0  0  0
  110.8515   67.1308   41.9378 C   0  0  0  0  0  0  0  0  0  0  0  0
  109.5440   68.3708   43.6224 C   0  0  0  0  0  0  0  0  0  0  0  0
  111.6209   65.7466   38.0550 C   0  0  0  0  0  0  0  0  0  0  0  0
  111.0204   66.1760   36.9199 C   0  0  0  0  0  0  0  0  0  0  0  0
  111.3951   65.5864   35.6008 C   0  0  0  0  0  0  0  0  0  0  0  0
  108.5518   67.9366   41.3388 C   0  0  0  0  0  0  0  0  0  0  0  0
  108.7158   68.9261   42.4816 C   0  0  0  0  0  0  0  0  0  0  0  0
  109.6924   69.1866   31.9593 C   0  0  0  0  0  0  0  0  0  0  0  0
  111.0099   65.5484   33.1663 C   0  0  0  0  0  0  0  0  0  0  0  0
  109.6948   67.1339   34.5273 C   0  0  0  0  0  0  0  0  0  0  0  0
  112.0213   66.4956   41.6899 N   0  0  0  0  0  0  0  0  0  0  0  0
  110.6130   67.5797   43.2509 N   0  0  0  0  0  0  0  0  0  0  0  0
  110.7211   66.0938   34.4864 N   0  0  0  0  0  0  0  0  0  0  0  0
  109.3209   68.6919   44.7896 O   0  0  0  0  0  0  0  0  0  0  0  0
  112.2374   64.6890   35.5488 O   0  0  0  0  0  0  0  0  0  0  0  0
  110.9317   69.0220   35.4173 O   0  0  0  0  0  0  0  0  0  0  0  0
  112.4120   73.6380   33.5468 H   0  0  0  0  0  0  0  0  0  0  0  0
  113.0358   73.0808   35.8794 H   0  0  0  0  0  0  0  0  0  0  0  0
  111.1106   72.0211   32.1461 H   0  0  0  0  0  0  0  0  0  0  0  0
  112.3743   70.8737   36.8939 H   0  0  0  0  0  0  0  0  0  0  0  0
  109.3640   66.9845   38.8884 H   0  0  0  0  0  0  0  0  0  0  0  0
  113.1802   65.5568   40.2042 H   0  0  0  0  0  0  0  0  0  0  0  0
  112.3998   64.9765   37.9540 H   0  0  0  0  0  0  0  0  0  0  0  0
  110.2532   66.9627   36.9701 H   0  0  0  0  0  0  0  0  0  0  0  0
  108.1363   68.4602   40.4652 H   0  0  0  0  0  0  0  0  0  0  0  0
  107.8732   67.1336   41.6622 H   0  0  0  0  0  0  0  0  0  0  0  0
  107.7189   69.1883   42.8657 H   0  0  0  0  0  0  0  0  0  0  0  0
  109.2439   69.8060   42.0856 H   0  0  0  0  0  0  0  0  0  0  0  0
  108.6555   68.8383   32.0760 H   0  0  0  0  0  0  0  0  0  0  0  0
  109.6999   70.1366   31.4048 H   0  0  0  0  0  0  0  0  0  0  0  0
  110.2718   68.4338   31.4048 H   0  0  0  0  0  0  0  0  0  0  0  0
  111.5222   64.5809   33.2734 H   0  0  0  0  0  0  0  0  0  0  0  0
  110.0690   65.4060   32.6145 H   0  0  0  0  0  0  0  0  0  0  0  0
  111.6565   66.2466   32.6145 H   0  0  0  0  0  0  0  0  0  0  0  0
  109.1846   67.0915   35.5009 H   0  0  0  0  0  0  0  0  0  0  0  0
  108.9916   66.9503   33.7016 H   0  0  0  0  0  0  0  0  0  0  0  0
  111.2806   67.2992   43.9833 H   0  0  0  0  0  0  0  0  0  0  0  0
  1  2  2  0
  1  3  1  0
  2  4  1  0
  3  7  2  0
  4 11  2  0
  5  8  2  0
  5  9  1  0
  6  8  1  0
  6 23  2  0
  7 10  1  0
  7 11  1  0
  8 15  1  0
  9 13  2  0
  9 18  1  0
 10 12  2  0
 10 20  1  0
 11 28  1  0
 12 22  1  0
 12 28  1  0
 13 23  1  0
 13 24  1  0
 14 19  1  0
 14 24  1  0
 14 26  2  0
 15 16  2  0
 16 17  1  0
 17 25  1  0
 17 27  2  0
 18 19  1  0
 21 25  1  0
 22 25  1  0
  1 29  1  0
  2 30  1  0
  3 31  1  0
  4 32  1  0
  5 33  1  0
  6 34  1  0
 15 35  1  0
 16 36  1  0
 18 37  1  0
 18 38  1  0
 19 39  1  0
 19 40  1  0
 20 41  1  0
 20 42  1  0
 20 43  1  0
 21 44  1  0
 21 45  1  0
 21 46  1  0
 22 47  1  0
 22 48  1  0
 24 49  1  0
M  END
>  <Name>  (187) 
CHEMBL1652621

>  <Comment>  (187) 
 Schrodinger Suite 2021-4.

>  <s_m_entry_id>  (187) 
1092

>  <class_value>  (187) 
1

>  <s_m_Source_Path>  (187) 
C:\Users\vinicius\Desktop

>  <s_m_Source_File>  (187) 
Ligands_Saureus_o.sdf

>  <i_m_Source_File_Index>  (187) 
16

>  <r_lp_tautomer_probability>  (187) 
1

>  <r_epik_Ionization_Penalty>  (187) 
0.0002

>  <r_epik_State_Penalty>  (187) 
0

>  <i_epik_Tot_Q>  (187) 
0

>  <i_f3d_flags>  (187) 
0

>  <s_m_job_name>  (187) 
Saureus_o

>  <FRED Chemgauss4 score>  (187) 
-18.364138

>  <Set>  (187) 
training

>  <HBA count>  (187) 
4

>  <HBD count>  (187) 
1

>  <ExactMolWt>  (187) 
375.1582915320006

>  <NumRotatableBounds>  (187) 
6

>  <FractionCsp3>  (187) 
0.22727272727272727

>  <TPSA>  (187) 
75.44

>  <LogP_WildmanCrippen>  (187) 
3.692720000000003

>  <General_Cluster>  (187) 
1

>  <Biological_Cluster>  (187) 
1

>  <Physicochemical_Cluster>  (187) 
1

>  <Structural_Cluster>  (187) 
2

$$$$
CHEMBL566647
     RDKit          3D

 62 66  0  0  0  0  0  0  0  0999 V2000
  111.4022   73.0818   33.7911 C   0  0  0  0  0  0  0  0  0  0  0  0
  111.8115   73.0284   35.1159 C   0  0  0  0  0  0  0  0  0  0  0  0
  110.8720   71.9478   33.1702 C   0  0  0  0  0  0  0  0  0  0  0  0
  111.7003   71.8446   35.8477 C   0  0  0  0  0  0  0  0  0  0  0  0
  110.3168   66.9839   39.4843 C   0  0  0  0  0  0  0  0  0  0  0  0
  112.2790   65.9371   40.3177 C   0  0  0  0  0  0  0  0  0  0  0  0
  110.7462   70.7322   33.8851 C   0  0  0  0  0  0  0  0  0  0  0  0
  111.4998   66.2998   39.2334 C   0  0  0  0  0  0  0  0  0  0  0  0
  109.9424   67.2652   40.7989 C   0  0  0  0  0  0  0  0  0  0  0  0
  110.2404   69.4540   33.4718 C   0  0  0  0  0  0  0  0  0  0  0  0
  111.1653   70.7032   35.2188 C   0  0  0  0  0  0  0  0  0  0  0  0
  110.2858   68.5118   34.4717 C   0  0  0  0  0  0  0  0  0  0  0  0
  110.7904   66.8536   41.8228 C   0  0  0  0  0  0  0  0  0  0  0  0
  109.2356   67.6984   43.5488 C   0  0  0  0  0  0  0  0  0  0  0  0
  111.9116   65.9878   37.8770 C   0  0  0  0  0  0  0  0  0  0  0  0
  111.0939   65.9534   36.7983 C   0  0  0  0  0  0  0  0  0  0  0  0
  111.6337   65.5855   35.4561 C   0  0  0  0  0  0  0  0  0  0  0  0
  108.7200   68.0740   41.1156 C   0  0  0  0  0  0  0  0  0  0  0  0
  107.0284   68.7615   42.8306 C   0  0  0  0  0  0  0  0  0  0  0  0
  107.4723   66.2891   42.4207 C   0  0  0  0  0  0  0  0  0  0  0  0
  106.0958   68.3840   43.9752 C   0  0  0  0  0  0  0  0  0  0  0  0
  106.5816   65.9673   43.6123 C   0  0  0  0  0  0  0  0  0  0  0  0
  108.1091   67.7030   42.4895 C   0  0  0  0  0  0  0  0  0  0  0  0
  109.7219   69.1766   32.1074 C   0  0  0  0  0  0  0  0  0  0  0  0
  111.4422   65.8291   33.0106 C   0  0  0  0  0  0  0  0  0  0  0  0
  109.8531   67.0747   34.4314 C   0  0  0  0  0  0  0  0  0  0  0  0
  111.9578   66.2039   41.6033 N   0  0  0  0  0  0  0  0  0  0  0  0
  110.4437   67.1554   43.1512 N   0  0  0  0  0  0  0  0  0  0  0  0
  110.9926   66.1623   34.3561 N   0  0  0  0  0  0  0  0  0  0  0  0
  105.5409   67.0237   43.7418 N   0  0  0  0  0  4  0  0  0  0  0  0
  109.0573   68.0758   44.7077 O   0  0  0  0  0  0  0  0  0  0  0  0
  112.5752   64.7958   35.3707 O   0  0  0  0  0  0  0  0  0  0  0  0
  110.9333   69.1434   35.9164 S   0  0  0  0  0  0  0  0  0  0  0  0
  111.4956   74.0215   33.2269 H   0  0  0  0  0  0  0  0  0  0  0  0
  112.2276   73.9274   35.5941 H   0  0  0  0  0  0  0  0  0  0  0  0
  110.5504   71.9999   32.1196 H   0  0  0  0  0  0  0  0  0  0  0  0
  112.0250   71.8038   36.8979 H   0  0  0  0  0  0  0  0  0  0  0  0
  109.6767   67.3031   38.6486 H   0  0  0  0  0  0  0  0  0  0  0  0
  113.2178   65.3984   40.1214 H   0  0  0  0  0  0  0  0  0  0  0  0
  112.9751   65.7607   37.7118 H   0  0  0  0  0  0  0  0  0  0  0  0
  110.0273   66.1976   36.9115 H   0  0  0  0  0  0  0  0  0  0  0  0
  108.9938   69.1393   41.1263 H   0  0  0  0  0  0  0  0  0  0  0  0
  107.9661   67.8606   40.3436 H   0  0  0  0  0  0  0  0  0  0  0  0
  106.4161   68.9260   41.9317 H   0  0  0  0  0  0  0  0  0  0  0  0
  107.5711   69.6599   43.1598 H   0  0  0  0  0  0  0  0  0  0  0  0
  108.2808   65.5444   42.3789 H   0  0  0  0  0  0  0  0  0  0  0  0
  106.8358   66.2635   41.5239 H   0  0  0  0  0  0  0  0  0  0  0  0
  106.6563   68.3928   44.9217 H   0  0  0  0  0  0  0  0  0  0  0  0
  105.2710   69.1099   44.0276 H   0  0  0  0  0  0  0  0  0  0  0  0
  106.0985   64.9912   43.4581 H   0  0  0  0  0  0  0  0  0  0  0  0
  107.1882   65.9303   44.5292 H   0  0  0  0  0  0  0  0  0  0  0  0
  108.7542   68.6589   32.1812 H   0  0  0  0  0  0  0  0  0  0  0  0
  109.5901   70.1247   31.5654 H   0  0  0  0  0  0  0  0  0  0  0  0
  110.4375   68.5408   31.5654 H   0  0  0  0  0  0  0  0  0  0  0  0
  112.3247   65.1751   33.0703 H   0  0  0  0  0  0  0  0  0  0  0  0
  110.6359   65.3088   32.4729 H   0  0  0  0  0  0  0  0  0  0  0  0
  111.7054   66.7519   32.4729 H   0  0  0  0  0  0  0  0  0  0  0  0
  109.2785   66.8510   35.3423 H   0  0  0  0  0  0  0  0  0  0  0  0
  109.2407   66.9291   33.5293 H   0  0  0  0  0  0  0  0  0  0  0  0
  111.1412   66.9574   43.8827 H   0  0  0  0  0  0  0  0  0  0  0  0
  104.9288   66.7818   44.5341 H   0  0  0  0  0  0  0  0  0  0  0  0
  105.0314   67.0557   42.8472 H   0  0  0  0  0  0  0  0  0  0  0  0
  1  2  2  0
  1  3  1  0
  2  4  1  0
  3  7  2  0
  4 11  2  0
  5  8  2  0
  5  9  1  0
  6  8  1  0
  6 27  2  0
  7 10  1  0
  7 11  1  0
  8 15  1  0
  9 13  2  0
  9 18  1  0
 10 12  2  0
 10 24  1  0
 11 33  1  0
 12 26  1  0
 12 33  1  0
 13 27  1  0
 13 28  1  0
 14 23  1  0
 14 28  1  0
 14 31  2  0
 15 16  2  0
 16 17  1  0
 17 29  1  0
 17 32  2  0
 18 23  1  0
 19 21  1  0
 19 23  1  0
 20 22  1  0
 20 23  1  0
 21 30  1  0
 22 30  1  0
 25 29  1  0
 26 29  1  0
  1 34  1  0
  2 35  1  0
  3 36  1  0
  4 37  1  0
  5 38  1  0
  6 39  1  0
 15 40  1  0
 16 41  1  0
 18 42  1  0
 18 43  1  0
 19 44  1  0
 19 45  1  0
 20 46  1  0
 20 47  1  0
 21 48  1  0
 21 49  1  0
 22 50  1  0
 22 51  1  0
 24 52  1  0
 24 53  1  0
 24 54  1  0
 25 55  1  0
 25 56  1  0
 25 57  1  0
 26 58  1  0
 26 59  1  0
 28 60  1  0
 30 61  1  0
 30 62  1  0
M  CHG  1  30   1
M  END
>  <Name>  (188) 
CHEMBL566647

>  <Comment>  (188) 
 Schrodinger Suite 2021-4.

>  <s_m_entry_id>  (188) 
1100

>  <class_value>  (188) 
1

>  <s_m_Source_Path>  (188) 
C:\Users\vinicius\Desktop

>  <s_m_Source_File>  (188) 
Ligands_Saureus_o.sdf

>  <i_m_Source_File_Index>  (188) 
22

>  <r_lp_tautomer_probability>  (188) 
1

>  <r_epik_Ionization_Penalty>  (188) 
0.0015

>  <r_epik_State_Penalty>  (188) 
0

>  <i_epik_Tot_Q>  (188) 
1

>  <i_f3d_flags>  (188) 
0

>  <s_m_job_name>  (188) 
Saureus_o

>  <FRED Chemgauss4 score>  (188) 
-19.620382

>  <Set>  (188) 
training

>  <HBA count>  (188) 
4

>  <HBD count>  (188) 
2

>  <ExactMolWt>  (188) 
461.20057358809083

>  <NumRotatableBounds>  (188) 
6

>  <FractionCsp3>  (188) 
0.34615384615384615

>  <TPSA>  (188) 
78.91

>  <LogP_WildmanCrippen>  (188) 
3.114720000000001

>  <General_Cluster>  (188) 
1

>  <Biological_Cluster>  (188) 
1

>  <Physicochemical_Cluster>  (188) 
4

>  <Structural_Cluster>  (188) 
2

$$$$
CHEMBL3623418
     RDKit          3D

 44 47  0  0  0  0  0  0  0  0999 V2000
  105.9895   63.7624   44.9529 C   0  0  0  0  0  0  0  0  0  0  0  0
  107.3449   63.4524   44.8419 C   0  0  0  0  0  0  0  0  0  0  0  0
  105.3809   64.5806   44.0011 C   0  0  0  0  0  0  0  0  0  0  0  0
  108.0918   63.9607   43.7792 C   0  0  0  0  0  0  0  0  0  0  0  0
  106.1278   65.0889   42.9384 C   0  0  0  0  0  0  0  0  0  0  0  0
  110.4527   66.5745   35.4623 C   0  0  0  0  0  0  0  0  0  0  0  0
  109.6042   66.7661   34.3719 C   0  0  0  0  0  0  0  0  0  0  0  0
  109.9648   69.1511   34.5105 C   0  0  0  0  0  0  0  0  0  0  0  0
  107.4833   64.7790   42.8274 C   0  0  0  0  0  0  0  0  0  0  0  0
  111.0571   67.6712   36.0769 C   0  0  0  0  0  0  0  0  0  0  0  0
  109.3603   68.0544   33.8960 C   0  0  0  0  0  0  0  0  0  0  0  0
  110.8132   68.9594   35.6010 C   0  0  0  0  0  0  0  0  0  0  0  0
  111.2533   64.9359   39.9173 C   0  0  0  0  0  0  0  0  0  0  0  0
  110.3093   67.3614   38.9274 C   0  0  0  0  0  0  0  0  0  0  0  0
  111.3387   66.8398   38.2451 C   0  0  0  0  0  0  0  0  0  0  0  0
  110.2209   65.5626   40.5161 C   0  0  0  0  0  0  0  0  0  0  0  0
  111.8919   65.5448   38.7197 C   0  0  0  0  0  0  0  0  0  0  0  0
  108.6106   67.7850   42.1749 C   0  0  0  0  0  0  0  0  0  0  0  0
  108.6901   68.8959   41.1698 C   0  0  0  0  0  0  0  0  0  0  0  0
  108.5860   67.4703   40.7052 C   0  0  0  0  0  0  0  0  0  0  0  0
  109.5868   64.9305   41.7283 C   0  0  0  0  0  0  0  0  0  0  0  0
  109.7147   66.7894   40.0463 N   0  0  0  0  0  0  0  0  0  0  0  0
  112.8325   64.9971   38.1559 O   0  0  0  0  0  0  0  0  0  0  0  0
  111.8850   67.4540   37.1447 O   0  0  0  0  0  0  0  0  0  0  0  0
  108.2192   65.2814   41.7810 O   0  0  0  0  0  0  0  0  0  0  0  0
  108.3130   68.2893   32.5507 Cl  0  0  0  0  0  0  0  0  0  0  0  0
  111.5472   70.3331   36.3426 Cl  0  0  0  0  0  0  0  0  0  0  0  0
  105.4005   63.3616   45.7910 H   0  0  0  0  0  0  0  0  0  0  0  0
  107.8248   62.8071   45.5924 H   0  0  0  0  0  0  0  0  0  0  0  0
  104.3120   64.8250   44.0886 H   0  0  0  0  0  0  0  0  0  0  0  0
  109.1607   63.7163   43.6917 H   0  0  0  0  0  0  0  0  0  0  0  0
  105.6479   65.7342   42.1878 H   0  0  0  0  0  0  0  0  0  0  0  0
  110.6452   65.5586   35.8375 H   0  0  0  0  0  0  0  0  0  0  0  0
  109.1274   65.9013   33.8873 H   0  0  0  0  0  0  0  0  0  0  0  0
  109.7725   70.1670   34.1352 H   0  0  0  0  0  0  0  0  0  0  0  0
  111.6221   63.9780   40.3127 H   0  0  0  0  0  0  0  0  0  0  0  0
  109.9020   68.3199   38.5731 H   0  0  0  0  0  0  0  0  0  0  0  0
  109.4930   67.5251   42.7782 H   0  0  0  0  0  0  0  0  0  0  0  0
  107.9580   67.5556   43.0302 H   0  0  0  0  0  0  0  0  0  0  0  0
  107.8392   69.5805   41.0385 H   0  0  0  0  0  0  0  0  0  0  0  0
  109.3871   69.7259   40.9819 H   0  0  0  0  0  0  0  0  0  0  0  0
  107.9090   66.9171   40.0376 H   0  0  0  0  0  0  0  0  0  0  0  0
  109.6825   63.8366   41.6638 H   0  0  0  0  0  0  0  0  0  0  0  0
  110.0929   65.2898   42.6364 H   0  0  0  0  0  0  0  0  0  0  0  0
  1  2  2  0
  1  3  1  0
  2  4  1  0
  3  5  2  0
  4  9  2  0
  5  9  1  0
  6  7  2  0
  6 10  1  0
  7 11  1  0
  8 11  2  0
  8 12  1  0
  9 25  1  0
 10 12  2  0
 10 24  1  0
 11 26  1  0
 12 27  1  0
 13 16  2  0
 13 17  1  0
 14 15  2  0
 14 22  1  0
 15 17  1  0
 15 24  1  0
 16 21  1  0
 16 22  1  0
 17 23  2  0
 18 19  1  0
 18 20  1  0
 19 20  1  0
 20 22  1  0
 21 25  1  0
  1 28  1  0
  2 29  1  0
  3 30  1  0
  4 31  1  0
  5 32  1  0
  6 33  1  0
  7 34  1  0
  8 35  1  0
 13 36  1  0
 14 37  1  0
 18 38  1  0
 18 39  1  0
 19 40  1  0
 19 41  1  0
 20 42  1  0
 21 43  1  0
 21 44  1  0
M  END
>  <Name>  (189) 
CHEMBL3623418

>  <Comment>  (189) 
 Schrodinger Suite 2021-4.

>  <s_m_entry_id>  (189) 
1172

>  <class_value>  (189) 
1

>  <s_m_Source_Path>  (189) 
C:\Users\vinicius\Desktop

>  <s_m_Source_File>  (189) 
Ligands_Saureus_o.sdf

>  <i_m_Source_File_Index>  (189) 
78

>  <r_lp_tautomer_probability>  (189) 
1

>  <r_epik_Ionization_Penalty>  (189) 
0

>  <r_epik_State_Penalty>  (189) 
0

>  <i_epik_Tot_Q>  (189) 
0

>  <i_f3d_flags>  (189) 
0

>  <s_m_job_name>  (189) 
Saureus_o

>  <FRED Chemgauss4 score>  (189) 
-12.335456

>  <Set>  (189) 
training

>  <HBA count>  (189) 
4

>  <HBD count>  (189) 
0

>  <ExactMolWt>  (189) 
401.0585487640004

>  <NumRotatableBounds>  (189) 
6

>  <FractionCsp3>  (189) 
0.19047619047619047

>  <TPSA>  (189) 
40.46

>  <LogP_WildmanCrippen>  (189) 
5.861300000000003

>  <General_Cluster>  (189) 
1

>  <Biological_Cluster>  (189) 
1

>  <Physicochemical_Cluster>  (189) 
1

>  <Structural_Cluster>  (189) 
5

$$$$
CHEMBL65873
     RDKit          3D

 32 34  0  0  0  0  0  0  0  0999 V2000
  111.8322   70.7479   32.2921 C   0  0  0  0  0  0  0  0  0  0  0  0
  112.0724   71.7117   33.2713 C   0  0  0  0  0  0  0  0  0  0  0  0
  110.9531   69.6959   32.5497 C   0  0  0  0  0  0  0  0  0  0  0  0
  111.7480   64.6848   38.2164 C   0  0  0  0  0  0  0  0  0  0  0  0
  110.5547   70.5716   34.7659 C   0  0  0  0  0  0  0  0  0  0  0  0
  110.1252   67.5547   36.2907 C   0  0  0  0  0  0  0  0  0  0  0  0
  112.0254   64.4926   39.5519 C   0  0  0  0  0  0  0  0  0  0  0  0
  110.9438   66.6621   39.1360 C   0  0  0  0  0  0  0  0  0  0  0  0
  110.4897   66.2643   34.5418 C   0  0  0  0  0  0  0  0  0  0  0  0
  111.1216   65.9416   37.9753 C   0  0  0  0  0  0  0  0  0  0  0  0
  111.4337   71.6236   34.5082 C   0  0  0  0  0  0  0  0  0  0  0  0
  110.3144   69.6078   33.7866 C   0  0  0  0  0  0  0  0  0  0  0  0
  110.7321   66.3755   36.6535 C   0  0  0  0  0  0  0  0  0  0  0  0
  111.6900   72.6554   35.5541 C   0  0  0  0  0  0  0  0  0  0  0  0
  109.3749   68.4825   34.0622 C   0  0  0  0  0  0  0  0  0  0  0  0
  110.9565   65.5767   35.5603 N   0  0  0  0  0  0  0  0  0  0  0  0
  109.9768   67.4691   34.9350 N   0  0  0  0  0  0  0  0  0  0  0  0
  111.5312   65.8239   40.5088 S   0  0  0  0  0  0  0  0  0  0  0  0
  112.3360   70.8174   31.3167 H   0  0  0  0  0  0  0  0  0  0  0  0
  112.7655   72.5413   33.0681 H   0  0  0  0  0  0  0  0  0  0  0  0
  110.7636   68.9358   31.7774 H   0  0  0  0  0  0  0  0  0  0  0  0
  111.9825   63.9538   37.4286 H   0  0  0  0  0  0  0  0  0  0  0  0
  110.0511   70.5021   35.7414 H   0  0  0  0  0  0  0  0  0  0  0  0
  109.8251   68.3846   36.9474 H   0  0  0  0  0  0  0  0  0  0  0  0
  112.5076   63.5903   39.9560 H   0  0  0  0  0  0  0  0  0  0  0  0
  110.4793   67.6584   39.1762 H   0  0  0  0  0  0  0  0  0  0  0  0
  110.5094   65.9130   33.4996 H   0  0  0  0  0  0  0  0  0  0  0  0
  111.5777   72.2032   36.5505 H   0  0  0  0  0  0  0  0  0  0  0  0
  112.7123   73.0455   35.4416 H   0  0  0  0  0  0  0  0  0  0  0  0
  110.9690   73.4785   35.4416 H   0  0  0  0  0  0  0  0  0  0  0  0
  108.4741   68.8827   34.5504 H   0  0  0  0  0  0  0  0  0  0  0  0
  109.1266   68.0031   33.1038 H   0  0  0  0  0  0  0  0  0  0  0  0
  1  2  2  0
  1  3  1  0
  2 11  1  0
  3 12  2  0
  4  7  2  0
  4 10  1  0
  5 11  2  0
  5 12  1  0
  6 13  2  0
  6 17  1  0
  7 18  1  0
  8 10  2  0
  8 18  1  0
  9 16  2  0
  9 17  1  0
 10 13  1  0
 11 14  1  0
 12 15  1  0
 13 16  1  0
 15 17  1  0
  1 19  1  0
  2 20  1  0
  3 21  1  0
  4 22  1  0
  5 23  1  0
  6 24  1  0
  7 25  1  0
  8 26  1  0
  9 27  1  0
 14 28  1  0
 14 29  1  0
 14 30  1  0
 15 31  1  0
 15 32  1  0
M  END
>  <Name>  (190) 
CHEMBL65873

>  <Comment>  (190) 
 Schrodinger Suite 2021-4.

>  <s_m_entry_id>  (190) 
1316

>  <class_value>  (190) 
0

>  <s_m_Source_Path>  (190) 
C:\Users\vinicius\Desktop

>  <s_m_Source_File>  (190) 
Ligands_Saureus_o.sdf

>  <i_m_Source_File_Index>  (190) 
188

>  <r_lp_tautomer_probability>  (190) 
1

>  <r_epik_Ionization_Penalty>  (190) 
0.316

>  <r_epik_State_Penalty>  (190) 
0.3102

>  <i_epik_Tot_Q>  (190) 
0

>  <i_f3d_flags>  (190) 
0

>  <s_m_job_name>  (190) 
Saureus_o

>  <FRED Chemgauss4 score>  (190) 
-13.630237

>  <Set>  (190) 
training

>  <HBA count>  (190) 
3

>  <HBD count>  (190) 
0

>  <ExactMolWt>  (190) 
254.087769448

>  <NumRotatableBounds>  (190) 
4

>  <FractionCsp3>  (190) 
0.13333333333333333

>  <TPSA>  (190) 
17.82

>  <LogP_WildmanCrippen>  (190) 
3.968320000000003

>  <General_Cluster>  (190) 
4

>  <Biological_Cluster>  (190) 
2

>  <Physicochemical_Cluster>  (190) 
3

>  <Structural_Cluster>  (190) 
1

$$$$
CHEMBL3623430
     RDKit          3D

 56 59  0  0  0  0  0  0  0  0999 V2000
  108.7652   69.5575   44.9989 C   0  0  0  0  0  0  0  0  0  0  0  0
  106.7817   62.5761   46.3906 C   0  0  0  0  0  0  0  0  0  0  0  0
  107.4568   69.5827   44.5163 C   0  0  0  0  0  0  0  0  0  0  0  0
  109.7729   68.9489   44.2507 C   0  0  0  0  0  0  0  0  0  0  0  0
  106.1509   63.4659   45.5213 C   0  0  0  0  0  0  0  0  0  0  0  0
  108.1199   62.2365   46.1911 C   0  0  0  0  0  0  0  0  0  0  0  0
  107.1560   68.9992   43.2856 C   0  0  0  0  0  0  0  0  0  0  0  0
  109.4722   68.3654   43.0200 C   0  0  0  0  0  0  0  0  0  0  0  0
  109.7341   66.8196   35.1215 C   0  0  0  0  0  0  0  0  0  0  0  0
  106.8581   64.0161   44.4522 C   0  0  0  0  0  0  0  0  0  0  0  0
  108.8271   62.7867   45.1221 C   0  0  0  0  0  0  0  0  0  0  0  0
  110.3438   66.4879   36.3314 C   0  0  0  0  0  0  0  0  0  0  0  0
  110.4908   69.1010   35.3656 C   0  0  0  0  0  0  0  0  0  0  0  0
  108.1637   68.3905   42.5374 C   0  0  0  0  0  0  0  0  0  0  0  0
  109.8076   68.1262   34.6386 C   0  0  0  0  0  0  0  0  0  0  0  0
  111.1005   68.7694   36.5755 C   0  0  0  0  0  0  0  0  0  0  0  0
  108.1963   63.6765   44.2527 C   0  0  0  0  0  0  0  0  0  0  0  0
  111.0270   67.4628   37.0584 C   0  0  0  0  0  0  0  0  0  0  0  0
  110.1086   64.7953   40.8410 C   0  0  0  0  0  0  0  0  0  0  0  0
  109.7804   67.3332   39.7433 C   0  0  0  0  0  0  0  0  0  0  0  0
  110.7998   66.6287   39.2319 C   0  0  0  0  0  0  0  0  0  0  0  0
  109.1183   65.6024   41.2710 C   0  0  0  0  0  0  0  0  0  0  0  0
  111.0317   65.2642   39.7728 C   0  0  0  0  0  0  0  0  0  0  0  0
  109.1567   68.4798   33.3443 C   0  0  0  0  0  0  0  0  0  0  0  0
  111.8288   69.8251   37.3401 C   0  0  0  0  0  0  0  0  0  0  0  0
  107.8405   67.7620   41.2127 C   0  0  0  0  0  0  0  0  0  0  0  0
  108.1948   65.1098   42.3549 C   0  0  0  0  0  0  0  0  0  0  0  0
  108.9194   66.8917   40.7416 N   0  0  0  0  0  0  0  0  0  0  0  0
  111.9407   64.5514   39.3625 O   0  0  0  0  0  0  0  0  0  0  0  0
  111.6179   67.1202   38.2442 O   0  0  0  0  0  0  0  0  0  0  0  0
  108.8931   64.2170   43.1986 O   0  0  0  0  0  0  0  0  0  0  0  0
  109.0024   70.0176   45.9695 H   0  0  0  0  0  0  0  0  0  0  0  0
  106.2239   62.1421   47.2335 H   0  0  0  0  0  0  0  0  0  0  0  0
  106.6621   70.0627   45.1063 H   0  0  0  0  0  0  0  0  0  0  0  0
  110.8048   68.9291   44.6313 H   0  0  0  0  0  0  0  0  0  0  0  0
  105.0957   63.7338   45.6788 H   0  0  0  0  0  0  0  0  0  0  0  0
  108.6174   61.5348   46.8768 H   0  0  0  0  0  0  0  0  0  0  0  0
  106.1241   69.0190   42.9051 H   0  0  0  0  0  0  0  0  0  0  0  0
  110.2669   67.8855   42.4300 H   0  0  0  0  0  0  0  0  0  0  0  0
  109.1953   66.0508   34.5482 H   0  0  0  0  0  0  0  0  0  0  0  0
  106.3606   64.7177   43.7665 H   0  0  0  0  0  0  0  0  0  0  0  0
  109.8823   62.5189   44.9647 H   0  0  0  0  0  0  0  0  0  0  0  0
  110.2859   65.4576   36.7122 H   0  0  0  0  0  0  0  0  0  0  0  0
  110.5488   70.1313   34.9848 H   0  0  0  0  0  0  0  0  0  0  0  0
  110.2337   63.7937   41.2783 H   0  0  0  0  0  0  0  0  0  0  0  0
  109.6114   68.3427   39.3403 H   0  0  0  0  0  0  0  0  0  0  0  0
  108.2057   68.9964   33.5412 H   0  0  0  0  0  0  0  0  0  0  0  0
  109.8209   69.1411   32.7685 H   0  0  0  0  0  0  0  0  0  0  0  0
  108.9634   67.5627   32.7685 H   0  0  0  0  0  0  0  0  0  0  0  0
  111.7061   69.6472   38.4187 H   0  0  0  0  0  0  0  0  0  0  0  0
  112.8977   69.7929   37.0825 H   0  0  0  0  0  0  0  0  0  0  0  0
  111.4191   70.8129   37.0825 H   0  0  0  0  0  0  0  0  0  0  0  0
  106.9225   67.1650   41.3172 H   0  0  0  0  0  0  0  0  0  0  0  0
  107.7084   68.5688   40.4767 H   0  0  0  0  0  0  0  0  0  0  0  0
  107.8330   65.9648   42.9449 H   0  0  0  0  0  0  0  0  0  0  0  0
  107.3389   64.5903   41.8994 H   0  0  0  0  0  0  0  0  0  0  0  0
  1  3  2  0
  1  4  1  0
  2  5  2  0
  2  6  1  0
  3  7  1  0
  4  8  2  0
  5 10  1  0
  6 11  2  0
  7 14  2  0
  8 14  1  0
  9 12  2  0
  9 15  1  0
 10 17  2  0
 11 17  1  0
 12 18  1  0
 13 15  2  0
 13 16  1  0
 14 26  1  0
 15 24  1  0
 16 18  2  0
 16 25  1  0
 17 31  1  0
 18 30  1  0
 19 22  2  0
 19 23  1  0
 20 21  2  0
 20 28  1  0
 21 23  1  0
 21 30  1  0
 22 27  1  0
 22 28  1  0
 23 29  2  0
 26 28  1  0
 27 31  1  0
  1 32  1  0
  2 33  1  0
  3 34  1  0
  4 35  1  0
  5 36  1  0
  6 37  1  0
  7 38  1  0
  8 39  1  0
  9 40  1  0
 10 41  1  0
 11 42  1  0
 12 43  1  0
 13 44  1  0
 19 45  1  0
 20 46  1  0
 24 47  1  0
 24 48  1  0
 24 49  1  0
 25 50  1  0
 25 51  1  0
 25 52  1  0
 26 53  1  0
 26 54  1  0
 27 55  1  0
 27 56  1  0
M  END
>  <Name>  (191) 
CHEMBL3623430

>  <Comment>  (191) 
 Schrodinger Suite 2021-4.

>  <s_m_entry_id>  (191) 
1231

>  <class_value>  (191) 
0

>  <s_m_Source_Path>  (191) 
C:\Users\vinicius\Desktop

>  <s_m_Source_File>  (191) 
Ligands_Saureus_o.sdf

>  <i_m_Source_File_Index>  (191) 
124

>  <r_lp_tautomer_probability>  (191) 
1

>  <r_epik_Ionization_Penalty>  (191) 
0

>  <r_epik_State_Penalty>  (191) 
0

>  <i_epik_Tot_Q>  (191) 
0

>  <i_f3d_flags>  (191) 
0

>  <s_m_job_name>  (191) 
Saureus_o

>  <FRED Chemgauss4 score>  (191) 
-11.838479

>  <Set>  (191) 
training

>  <HBA count>  (191) 
4

>  <HBD count>  (191) 
0

>  <ExactMolWt>  (191) 
411.18344366000065

>  <NumRotatableBounds>  (191) 
9

>  <FractionCsp3>  (191) 
0.14814814814814814

>  <TPSA>  (191) 
40.46

>  <LogP_WildmanCrippen>  (191) 
5.884740000000004

>  <General_Cluster>  (191) 
1

>  <Biological_Cluster>  (191) 
2

>  <Physicochemical_Cluster>  (191) 
1

>  <Structural_Cluster>  (191) 
5

$$$$
CHEMBL3621746
     RDKit          3D

 44 47  0  0  0  0  0  0  0  0999 V2000
  106.6288   62.6229   44.8933 C   0  0  0  0  0  0  0  0  0  0  0  0
  107.9875   62.4006   44.6695 C   0  0  0  0  0  0  0  0  0  0  0  0
  105.9176   63.4885   44.0623 C   0  0  0  0  0  0  0  0  0  0  0  0
  109.3736   66.7583   34.4392 C   0  0  0  0  0  0  0  0  0  0  0  0
  108.6350   63.0441   43.6148 C   0  0  0  0  0  0  0  0  0  0  0  0
  106.5650   64.1320   43.0077 C   0  0  0  0  0  0  0  0  0  0  0  0
  110.3022   66.5236   35.4532 C   0  0  0  0  0  0  0  0  0  0  0  0
  109.0297   68.0663   34.0975 C   0  0  0  0  0  0  0  0  0  0  0  0
  107.9238   63.9098   42.7838 C   0  0  0  0  0  0  0  0  0  0  0  0
  110.8869   67.5967   36.1256 C   0  0  0  0  0  0  0  0  0  0  0  0
  109.6143   69.1395   34.7700 C   0  0  0  0  0  0  0  0  0  0  0  0
  110.5430   68.9047   35.7840 C   0  0  0  0  0  0  0  0  0  0  0  0
  111.4772   64.5404   39.6723 C   0  0  0  0  0  0  0  0  0  0  0  0
  110.3487   66.9888   38.9753 C   0  0  0  0  0  0  0  0  0  0  0  0
  111.3547   66.5896   38.1843 C   0  0  0  0  0  0  0  0  0  0  0  0
  110.4573   65.0515   40.3904 C   0  0  0  0  0  0  0  0  0  0  0  0
  112.0027   65.2900   38.4997 C   0  0  0  0  0  0  0  0  0  0  0  0
  108.8529   67.0210   42.3477 C   0  0  0  0  0  0  0  0  0  0  0  0
  108.8090   68.2210   41.4485 C   0  0  0  0  0  0  0  0  0  0  0  0
  108.7454   66.8396   40.8593 C   0  0  0  0  0  0  0  0  0  0  0  0
  109.9385   64.2777   41.5750 C   0  0  0  0  0  0  0  0  0  0  0  0
  109.8600   66.2855   40.0704 N   0  0  0  0  0  0  0  0  0  0  0  0
  112.9295   64.8492   37.8296 O   0  0  0  0  0  0  0  0  0  0  0  0
  111.7944   67.3305   37.1146 O   0  0  0  0  0  0  0  0  0  0  0  0
  108.5616   64.5453   41.7455 O   0  0  0  0  0  0  0  0  0  0  0  0
  109.1425   70.7348   34.2973 Cl  0  0  0  0  0  0  0  0  0  0  0  0
  111.2886   70.2156   36.6395 Cl  0  0  0  0  0  0  0  0  0  0  0  0
  106.1182   62.1156   45.7251 H   0  0  0  0  0  0  0  0  0  0  0  0
  108.5484   61.7179   45.3247 H   0  0  0  0  0  0  0  0  0  0  0  0
  104.8461   63.6636   44.2387 H   0  0  0  0  0  0  0  0  0  0  0  0
  108.9125   65.9120   33.9090 H   0  0  0  0  0  0  0  0  0  0  0  0
  109.7065   62.8689   43.4384 H   0  0  0  0  0  0  0  0  0  0  0  0
  106.0041   64.8147   42.3525 H   0  0  0  0  0  0  0  0  0  0  0  0
  110.5734   65.4922   35.7226 H   0  0  0  0  0  0  0  0  0  0  0  0
  108.2975   68.2514   33.2977 H   0  0  0  0  0  0  0  0  0  0  0  0
  111.9192   63.5728   39.9523 H   0  0  0  0  0  0  0  0  0  0  0  0
  109.8711   67.9510   38.7386 H   0  0  0  0  0  0  0  0  0  0  0  0
  109.7857   66.7575   42.8678 H   0  0  0  0  0  0  0  0  0  0  0  0
  108.2715   66.6789   43.2166 H   0  0  0  0  0  0  0  0  0  0  0  0
  107.9180   68.8659   41.4354 H   0  0  0  0  0  0  0  0  0  0  0  0
  109.4494   69.1023   41.2964 H   0  0  0  0  0  0  0  0  0  0  0  0
  108.0537   66.3120   40.1862 H   0  0  0  0  0  0  0  0  0  0  0  0
  110.0842   63.2012   41.4022 H   0  0  0  0  0  0  0  0  0  0  0  0
  110.4859   64.5811   42.4796 H   0  0  0  0  0  0  0  0  0  0  0  0
  1  2  2  0
  1  3  1  0
  2  5  1  0
  3  6  2  0
  4  7  2  0
  4  8  1  0
  5  9  2  0
  6  9  1  0
  7 10  1  0
  8 11  2  0
  9 25  1  0
 10 12  2  0
 10 24  1  0
 11 12  1  0
 11 26  1  0
 12 27  1  0
 13 16  2  0
 13 17  1  0
 14 15  2  0
 14 22  1  0
 15 17  1  0
 15 24  1  0
 16 21  1  0
 16 22  1  0
 17 23  2  0
 18 19  1  0
 18 20  1  0
 19 20  1  0
 20 22  1  0
 21 25  1  0
  1 28  1  0
  2 29  1  0
  3 30  1  0
  4 31  1  0
  5 32  1  0
  6 33  1  0
  7 34  1  0
  8 35  1  0
 13 36  1  0
 14 37  1  0
 18 38  1  0
 18 39  1  0
 19 40  1  0
 19 41  1  0
 20 42  1  0
 21 43  1  0
 21 44  1  0
M  END
>  <Name>  (192) 
CHEMBL3621746

>  <Comment>  (192) 
 Schrodinger Suite 2021-4.

>  <s_m_entry_id>  (192) 
1208

>  <class_value>  (192) 
0

>  <s_m_Source_Path>  (192) 
C:\Users\vinicius\Desktop

>  <s_m_Source_File>  (192) 
Ligands_Saureus_o.sdf

>  <i_m_Source_File_Index>  (192) 
106

>  <r_lp_tautomer_probability>  (192) 
1

>  <r_epik_Ionization_Penalty>  (192) 
0

>  <r_epik_State_Penalty>  (192) 
0

>  <i_epik_Tot_Q>  (192) 
0

>  <i_f3d_flags>  (192) 
0

>  <s_m_job_name>  (192) 
Saureus_o

>  <FRED Chemgauss4 score>  (192) 
-13.253946

>  <Set>  (192) 
training

>  <HBA count>  (192) 
4

>  <HBD count>  (192) 
0

>  <ExactMolWt>  (192) 
401.0585487640004

>  <NumRotatableBounds>  (192) 
6

>  <FractionCsp3>  (192) 
0.19047619047619047

>  <TPSA>  (192) 
40.46

>  <LogP_WildmanCrippen>  (192) 
5.861300000000003

>  <General_Cluster>  (192) 
1

>  <Biological_Cluster>  (192) 
2

>  <Physicochemical_Cluster>  (192) 
1

>  <Structural_Cluster>  (192) 
5

$$$$
CHEMBL3623419
     RDKit          3D

 49 51  0  0  0  0  0  0  0  0999 V2000
  110.2815   67.7160   31.3079 C   0  0  0  0  0  0  0  0  0  0  0  0
  110.9866   66.5940   31.7430 C   0  0  0  0  0  0  0  0  0  0  0  0
  109.6158   68.5226   32.2309 C   0  0  0  0  0  0  0  0  0  0  0  0
  111.0259   66.2783   33.1011 C   0  0  0  0  0  0  0  0  0  0  0  0
  109.6550   68.2069   33.5890 C   0  0  0  0  0  0  0  0  0  0  0  0
  109.4584   63.8259   42.7556 C   0  0  0  0  0  0  0  0  0  0  0  0
  108.2119   63.6506   43.3565 C   0  0  0  0  0  0  0  0  0  0  0  0
  107.4790   65.7685   42.4542 C   0  0  0  0  0  0  0  0  0  0  0  0
  110.3601   67.0848   34.0242 C   0  0  0  0  0  0  0  0  0  0  0  0
  109.7152   64.9726   42.0040 C   0  0  0  0  0  0  0  0  0  0  0  0
  107.2222   64.6218   43.2058 C   0  0  0  0  0  0  0  0  0  0  0  0
  108.7255   65.9439   41.8533 C   0  0  0  0  0  0  0  0  0  0  0  0
  110.5285   64.3194   37.7360 C   0  0  0  0  0  0  0  0  0  0  0  0
  111.4907   66.3053   39.4343 C   0  0  0  0  0  0  0  0  0  0  0  0
  110.9859   65.2310   40.0572 C   0  0  0  0  0  0  0  0  0  0  0  0
  111.0612   65.4502   37.2316 C   0  0  0  0  0  0  0  0  0  0  0  0
  110.4547   64.1318   39.2099 C   0  0  0  0  0  0  0  0  0  0  0  0
  110.7519   71.2978   36.9813 C   0  0  0  0  0  0  0  0  0  0  0  0
  111.1273   65.6229   35.7358 C   0  0  0  0  0  0  0  0  0  0  0  0
  111.7582   70.1578   36.9603 C   0  0  0  0  0  0  0  0  0  0  0  0
  111.1687   68.8810   37.5639 C   0  0  0  0  0  0  0  0  0  0  0  0
  112.1354   67.7031   37.5019 C   0  0  0  0  0  0  0  0  0  0  0  0
  111.5583   66.4772   38.0564 N   0  0  0  0  0  0  0  0  0  0  0  0
  109.9746   63.1144   39.6965 O   0  0  0  0  0  0  0  0  0  0  0  0
  110.9468   65.1186   41.4256 O   0  0  0  0  0  0  0  0  0  0  0  0
  110.3971   66.7733   35.3623 O   0  0  0  0  0  0  0  0  0  0  0  0
  105.6848   64.4043   43.9481 Cl  0  0  0  0  0  0  0  0  0  0  0  0
  109.0166   67.3715   40.9297 Cl  0  0  0  0  0  0  0  0  0  0  0  0
  110.2504   67.9648   30.2369 H   0  0  0  0  0  0  0  0  0  0  0  0
  111.5117   65.9581   31.0151 H   0  0  0  0  0  0  0  0  0  0  0  0
  109.0599   69.4076   31.8878 H   0  0  0  0  0  0  0  0  0  0  0  0
  111.5819   65.3934   33.4442 H   0  0  0  0  0  0  0  0  0  0  0  0
  109.1298   68.8429   34.3168 H   0  0  0  0  0  0  0  0  0  0  0  0
  110.2389   63.0599   42.8744 H   0  0  0  0  0  0  0  0  0  0  0  0
  108.0094   62.7464   43.9493 H   0  0  0  0  0  0  0  0  0  0  0  0
  106.6985   66.5345   42.3354 H   0  0  0  0  0  0  0  0  0  0  0  0
  110.1498   63.5383   37.0604 H   0  0  0  0  0  0  0  0  0  0  0  0
  111.8834   67.1168   40.0646 H   0  0  0  0  0  0  0  0  0  0  0  0
  110.5188   71.5619   38.0234 H   0  0  0  0  0  0  0  0  0  0  0  0
  111.1779   72.1724   36.4679 H   0  0  0  0  0  0  0  0  0  0  0  0
  109.8312   70.9837   36.4679 H   0  0  0  0  0  0  0  0  0  0  0  0
  112.1765   65.7378   35.4259 H   0  0  0  0  0  0  0  0  0  0  0  0
  110.6950   64.7385   35.2449 H   0  0  0  0  0  0  0  0  0  0  0  0
  112.0519   69.9589   35.9191 H   0  0  0  0  0  0  0  0  0  0  0  0
  112.6299   70.4546   37.5620 H   0  0  0  0  0  0  0  0  0  0  0  0
  110.9149   69.0735   38.6168 H   0  0  0  0  0  0  0  0  0  0  0  0
  110.2791   68.6136   36.9747 H   0  0  0  0  0  0  0  0  0  0  0  0
  112.4051   67.5225   36.4509 H   0  0  0  0  0  0  0  0  0  0  0  0
  113.0176   67.9614   38.1060 H   0  0  0  0  0  0  0  0  0  0  0  0
  1  2  2  0
  1  3  1  0
  2  4  1  0
  3  5  2  0
  4  9  2  0
  5  9  1  0
  6  7  2  0
  6 10  1  0
  7 11  1  0
  8 11  2  0
  8 12  1  0
  9 26  1  0
 10 12  2  0
 10 25  1  0
 11 27  1  0
 12 28  1  0
 13 16  2  0
 13 17  1  0
 14 15  2  0
 14 23  1  0
 15 17  1  0
 15 25  1  0
 16 19  1  0
 16 23  1  0
 17 24  2  0
 18 20  1  0
 19 26  1  0
 20 21  1  0
 21 22  1  0
 22 23  1  0
  1 29  1  0
  2 30  1  0
  3 31  1  0
  4 32  1  0
  5 33  1  0
  6 34  1  0
  7 35  1  0
  8 36  1  0
 13 37  1  0
 14 38  1  0
 18 39  1  0
 18 40  1  0
 18 41  1  0
 19 42  1  0
 19 43  1  0
 20 44  1  0
 20 45  1  0
 21 46  1  0
 21 47  1  0
 22 48  1  0
 22 49  1  0
M  END
>  <Name>  (193) 
CHEMBL3623419

>  <Comment>  (193) 
 Schrodinger Suite 2021-4.

>  <s_m_entry_id>  (193) 
1205

>  <class_value>  (193) 
0

>  <s_m_Source_Path>  (193) 
C:\Users\vinicius\Desktop

>  <s_m_Source_File>  (193) 
Ligands_Saureus_o.sdf

>  <i_m_Source_File_Index>  (193) 
103

>  <r_lp_tautomer_probability>  (193) 
1

>  <r_epik_Ionization_Penalty>  (193) 
0

>  <r_epik_State_Penalty>  (193) 
0

>  <i_epik_Tot_Q>  (193) 
0

>  <i_f3d_flags>  (193) 
0

>  <s_m_job_name>  (193) 
Saureus_o

>  <FRED Chemgauss4 score>  (193) 
-11.599239

>  <Set>  (193) 
training

>  <HBA count>  (193) 
4

>  <HBD count>  (193) 
0

>  <ExactMolWt>  (193) 
417.08984889200053

>  <NumRotatableBounds>  (193) 
9

>  <FractionCsp3>  (193) 
0.22727272727272727

>  <TPSA>  (193) 
40.46

>  <LogP_WildmanCrippen>  (193) 
6.326500000000004

>  <General_Cluster>  (193) 
1

>  <Biological_Cluster>  (193) 
2

>  <Physicochemical_Cluster>  (193) 
1

>  <Structural_Cluster>  (193) 
5

$$$$
CHEMBL3322720
     RDKit          3D

 50 54  0  0  0  0  0  0  0  0999 V2000
  112.0402   72.2536   36.1197 C   0  0  0  0  0  0  0  0  0  0  0  0
  111.8436   73.1252   35.0444 C   0  0  0  0  0  0  0  0  0  0  0  0
  110.8858   71.3462   33.6825 C   0  0  0  0  0  0  0  0  0  0  0  0
  108.5889   63.1447   42.7530 C   0  0  0  0  0  0  0  0  0  0  0  0
  108.5520   65.5151   42.8992 C   0  0  0  0  0  0  0  0  0  0  0  0
  111.0740   70.4522   34.7510 C   0  0  0  0  0  0  0  0  0  0  0  0
  109.1254   64.3697   42.3761 C   0  0  0  0  0  0  0  0  0  0  0  0
  107.4936   63.1017   43.6169 C   0  0  0  0  0  0  0  0  0  0  0  0
  110.8219   69.0736   34.9788 C   0  0  0  0  0  0  0  0  0  0  0  0
  111.6415   70.9321   35.9270 C   0  0  0  0  0  0  0  0  0  0  0  0
  111.2769   72.6821   33.8466 C   0  0  0  0  0  0  0  0  0  0  0  0
  111.2460   68.8084   36.2603 C   0  0  0  0  0  0  0  0  0  0  0  0
  106.9820   64.3111   44.0861 C   0  0  0  0  0  0  0  0  0  0  0  0
  105.1645   63.1614   45.2944 C   0  0  0  0  0  0  0  0  0  0  0  0
  110.2418   64.4464   41.4517 C   0  0  0  0  0  0  0  0  0  0  0  0
  110.5977   65.5341   40.7282 C   0  0  0  0  0  0  0  0  0  0  0  0
  111.7368   65.5606   39.7928 C   0  0  0  0  0  0  0  0  0  0  0  0
  106.9444   61.8023   44.1228 C   0  0  0  0  0  0  0  0  0  0  0  0
  105.4673   61.9347   44.4581 C   0  0  0  0  0  0  0  0  0  0  0  0
  110.5104   67.2969   38.3745 C   0  0  0  0  0  0  0  0  0  0  0  0
  112.4507   66.8188   37.6347 C   0  0  0  0  0  0  0  0  0  0  0  0
  111.1717   67.3963   36.9782 C   0  0  0  0  0  0  0  0  0  0  0  0
  110.2227   68.1178   34.0267 C   0  0  0  0  0  0  0  0  0  0  0  0
  107.5010   65.5155   43.7493 N   0  0  0  0  0  0  0  0  0  0  0  0
  105.8927   64.2912   44.9779 N   0  0  0  0  0  0  0  0  0  0  0  0
  111.5993   66.4090   38.7333 N   0  0  0  0  0  0  0  0  0  0  0  0
  104.2606   63.1583   46.1300 O   0  0  0  0  0  0  0  0  0  0  0  0
  112.7154   64.8472   39.9987 O   0  0  0  0  0  0  0  0  0  0  0  0
  111.7450   69.9293   36.8439 O   0  0  0  0  0  0  0  0  0  0  0  0
  111.0547   73.7942   32.5482 Cl  0  0  0  0  0  0  0  0  0  0  0  0
  112.4855   72.5925   37.0667 H   0  0  0  0  0  0  0  0  0  0  0  0
  112.1407   74.1797   35.1432 H   0  0  0  0  0  0  0  0  0  0  0  0
  110.4405   71.0041   32.7366 H   0  0  0  0  0  0  0  0  0  0  0  0
  109.0266   62.2105   42.3712 H   0  0  0  0  0  0  0  0  0  0  0  0
  108.9779   66.4857   42.6050 H   0  0  0  0  0  0  0  0  0  0  0  0
  110.8531   63.5403   41.3279 H   0  0  0  0  0  0  0  0  0  0  0  0
  110.0021   66.4515   40.8452 H   0  0  0  0  0  0  0  0  0  0  0  0
  107.0708   61.0314   43.3484 H   0  0  0  0  0  0  0  0  0  0  0  0
  107.4894   61.5206   45.0358 H   0  0  0  0  0  0  0  0  0  0  0  0
  105.1520   61.0413   45.0170 H   0  0  0  0  0  0  0  0  0  0  0  0
  104.9194   62.0360   43.5097 H   0  0  0  0  0  0  0  0  0  0  0  0
  110.4787   68.2405   38.9389 H   0  0  0  0  0  0  0  0  0  0  0  0
  109.4557   67.0126   38.5043 H   0  0  0  0  0  0  0  0  0  0  0  0
  112.9211   65.9925   37.0816 H   0  0  0  0  0  0  0  0  0  0  0  0
  113.3551   67.4257   37.7892 H   0  0  0  0  0  0  0  0  0  0  0  0
  110.7181   66.9343   36.0889 H   0  0  0  0  0  0  0  0  0  0  0  0
  109.7186   67.3137   34.5828 H   0  0  0  0  0  0  0  0  0  0  0  0
  109.4905   68.6408   33.3939 H   0  0  0  0  0  0  0  0  0  0  0  0
  111.0125   67.6867   33.3939 H   0  0  0  0  0  0  0  0  0  0  0  0
  105.6207   65.1788   45.4241 H   0  0  0  0  0  0  0  0  0  0  0  0
  1  2  2  0
  1 10  1  0
  2 11  1  0
  3  6  1  0
  3 11  2  0
  4  7  2  0
  4  8  1  0
  5  7  1  0
  5 24  2  0
  6  9  1  0
  6 10  2  0
  7 15  1  0
  8 13  2  0
  8 18  1  0
  9 12  2  0
  9 23  1  0
 10 29  1  0
 11 30  1  0
 12 22  1  0
 12 29  1  0
 13 24  1  0
 13 25  1  0
 14 19  1  0
 14 25  1  0
 14 27  2  0
 15 16  2  0
 16 17  1  0
 17 26  1  0
 17 28  2  0
 18 19  1  0
 20 22  1  0
 20 26  1  0
 21 22  1  0
 21 26  1  0
  1 31  1  0
  2 32  1  0
  3 33  1  0
  4 34  1  0
  5 35  1  0
 15 36  1  0
 16 37  1  0
 18 38  1  0
 18 39  1  0
 19 40  1  0
 19 41  1  0
 20 42  1  0
 20 43  1  0
 21 44  1  0
 21 45  1  0
 22 46  1  0
 23 47  1  0
 23 48  1  0
 23 49  1  0
 25 50  1  0
M  END
>  <Name>  (194) 
CHEMBL3322720

>  <Comment>  (194) 
 Schrodinger Suite 2021-4.

>  <s_m_entry_id>  (194) 
1137

>  <class_value>  (194) 
1

>  <s_m_Source_Path>  (194) 
C:\Users\vinicius\Desktop

>  <s_m_Source_File>  (194) 
Ligands_Saureus_o.sdf

>  <i_m_Source_File_Index>  (194) 
51

>  <r_lp_tautomer_probability>  (194) 
1

>  <r_epik_Ionization_Penalty>  (194) 
0.0002

>  <r_epik_State_Penalty>  (194) 
0

>  <i_epik_Tot_Q>  (194) 
0

>  <i_f3d_flags>  (194) 
0

>  <s_m_job_name>  (194) 
Saureus_o

>  <FRED Chemgauss4 score>  (194) 
-12.744122

>  <Set>  (194) 
training

>  <HBA count>  (194) 
4

>  <HBD count>  (194) 
1

>  <ExactMolWt>  (194) 
421.11931918000056

>  <NumRotatableBounds>  (194) 
4

>  <FractionCsp3>  (194) 
0.2608695652173913

>  <TPSA>  (194) 
75.44

>  <LogP_WildmanCrippen>  (194) 
4.313520000000004

>  <General_Cluster>  (194) 
1

>  <Biological_Cluster>  (194) 
1

>  <Physicochemical_Cluster>  (194) 
1

>  <Structural_Cluster>  (194) 
2

$$$$
CHEMBL3676411
     RDKit          3D

 45 47  0  0  0  0  0  0  0  0999 V2000
  109.8688   66.6641   39.8970 C   0  0  0  0  0  0  0  0  0  0  0  0
  112.0247   65.9586   40.6014 C   0  0  0  0  0  0  0  0  0  0  0  0
  111.0915   66.0813   39.5872 C   0  0  0  0  0  0  0  0  0  0  0  0
  109.6099   67.0846   41.2024 C   0  0  0  0  0  0  0  0  0  0  0  0
  110.6120   66.9121   42.1566 C   0  0  0  0  0  0  0  0  0  0  0  0
  109.1614   67.7867   43.9499 C   0  0  0  0  0  0  0  0  0  0  0  0
  110.1836   71.5856   30.6744 C   0  0  0  0  0  0  0  0  0  0  0  0
  111.3863   65.6294   38.2398 C   0  0  0  0  0  0  0  0  0  0  0  0
  110.7534   66.0330   37.1129 C   0  0  0  0  0  0  0  0  0  0  0  0
  110.7271   71.0470   31.7765 C   0  0  0  0  0  0  0  0  0  0  0  0
  111.0830   65.5368   35.7642 C   0  0  0  0  0  0  0  0  0  0  0  0
  108.3439   67.8033   41.5583 C   0  0  0  0  0  0  0  0  0  0  0  0
  107.9855   67.5747   43.0182 C   0  0  0  0  0  0  0  0  0  0  0  0
  110.3536   67.7793   34.7859 C   0  0  0  0  0  0  0  0  0  0  0  0
  111.0763   66.3989   33.3167 C   0  0  0  0  0  0  0  0  0  0  0  0
  110.2759   67.7095   33.2539 C   0  0  0  0  0  0  0  0  0  0  0  0
  112.0519   71.5129   32.3080 C   0  0  0  0  0  0  0  0  0  0  0  0
  110.0514   69.9317   32.5229 C   0  0  0  0  0  0  0  0  0  0  0  0
  111.8183   66.3658   41.8737 N   0  0  0  0  0  0  0  0  0  0  0  0
  110.3825   67.3512   43.4746 N   0  0  0  0  0  0  0  0  0  0  0  0
  110.8619   66.4222   34.7490 N   0  0  0  0  0  0  0  0  0  0  0  0
  109.0039   68.2308   45.0871 O   0  0  0  0  0  0  0  0  0  0  0  0
  111.5214   64.3984   35.6201 O   0  0  0  0  0  0  0  0  0  0  0  0
  110.8960   68.7965   32.5450 O   0  0  0  0  0  0  0  0  0  0  0  0
  109.1063   66.7938   39.1149 H   0  0  0  0  0  0  0  0  0  0  0  0
  112.9948   65.5013   40.3571 H   0  0  0  0  0  0  0  0  0  0  0  0
  109.2114   71.2244   30.3078 H   0  0  0  0  0  0  0  0  0  0  0  0
  110.7102   72.3884   30.1375 H   0  0  0  0  0  0  0  0  0  0  0  0
  112.1958   64.8937   38.1238 H   0  0  0  0  0  0  0  0  0  0  0  0
  109.9464   66.7742   37.2092 H   0  0  0  0  0  0  0  0  0  0  0  0
  108.4800   68.8810   41.3848 H   0  0  0  0  0  0  0  0  0  0  0  0
  107.5290   67.4143   40.9301 H   0  0  0  0  0  0  0  0  0  0  0  0
  107.6263   66.5415   43.1346 H   0  0  0  0  0  0  0  0  0  0  0  0
  107.2114   68.3079   43.2887 H   0  0  0  0  0  0  0  0  0  0  0  0
  111.0610   68.5252   35.1773 H   0  0  0  0  0  0  0  0  0  0  0  0
  109.4851   68.0588   35.4004 H   0  0  0  0  0  0  0  0  0  0  0  0
  110.6105   65.5497   32.7953 H   0  0  0  0  0  0  0  0  0  0  0  0
  112.0821   66.3098   32.8802 H   0  0  0  0  0  0  0  0  0  0  0  0
  109.3107   67.7591   32.7286 H   0  0  0  0  0  0  0  0  0  0  0  0
  112.0291   71.5049   33.4077 H   0  0  0  0  0  0  0  0  0  0  0  0
  112.8465   70.8403   31.9528 H   0  0  0  0  0  0  0  0  0  0  0  0
  112.2506   72.5348   31.9528 H   0  0  0  0  0  0  0  0  0  0  0  0
  109.8439   70.2540   33.5540 H   0  0  0  0  0  0  0  0  0  0  0  0
  109.1069   69.6751   32.0207 H   0  0  0  0  0  0  0  0  0  0  0  0
  111.1788   67.3473   44.1279 H   0  0  0  0  0  0  0  0  0  0  0  0
  1  3  2  0
  1  4  1  0
  2  3  1  0
  2 19  2  0
  3  8  1  0
  4  5  2  0
  4 12  1  0
  5 19  1  0
  5 20  1  0
  6 13  1  0
  6 20  1  0
  6 22  2  0
  7 10  2  3
  8  9  2  0
  9 11  1  0
 10 17  1  0
 10 18  1  0
 11 21  1  0
 11 23  2  0
 12 13  1  0
 14 16  1  0
 14 21  1  0
 15 16  1  0
 15 21  1  0
 16 24  1  0
 18 24  1  0
  1 25  1  0
  2 26  1  0
  7 27  1  0
  7 28  1  0
  8 29  1  0
  9 30  1  0
 12 31  1  0
 12 32  1  0
 13 33  1  0
 13 34  1  0
 14 35  1  0
 14 36  1  0
 15 37  1  0
 15 38  1  0
 16 39  1  0
 17 40  1  0
 17 41  1  0
 17 42  1  0
 18 43  1  0
 18 44  1  0
 20 45  1  0
M  END
>  <Name>  (195) 
CHEMBL3676411

>  <Comment>  (195) 
 Schrodinger Suite 2021-4.

>  <s_m_entry_id>  (195) 
1131

>  <class_value>  (195) 
1

>  <s_m_Source_Path>  (195) 
C:\Users\vinicius\Desktop

>  <s_m_Source_File>  (195) 
Ligands_Saureus_o.sdf

>  <i_m_Source_File_Index>  (195) 
46

>  <r_lp_tautomer_probability>  (195) 
1

>  <r_epik_Ionization_Penalty>  (195) 
0.0002

>  <r_epik_State_Penalty>  (195) 
0

>  <i_epik_Tot_Q>  (195) 
0

>  <i_f3d_flags>  (195) 
0

>  <s_m_job_name>  (195) 
Saureus_o

>  <FRED Chemgauss4 score>  (195) 
-12.583267

>  <Set>  (195) 
training

>  <HBA count>  (195) 
4

>  <HBD count>  (195) 
1

>  <ExactMolWt>  (195) 
327.15829153200053

>  <NumRotatableBounds>  (195) 
6

>  <FractionCsp3>  (195) 
0.3888888888888889

>  <TPSA>  (195) 
71.53

>  <LogP_WildmanCrippen>  (195) 
1.7829999999999997

>  <General_Cluster>  (195) 
1

>  <Biological_Cluster>  (195) 
1

>  <Physicochemical_Cluster>  (195) 
4

>  <Structural_Cluster>  (195) 
2

$$$$
CHEMBL3623417
     RDKit          3D

 40 42  0  0  0  0  0  0  0  0999 V2000
  107.6797   62.7400   45.0580 C   0  0  0  0  0  0  0  0  0  0  0  0
  107.4693   64.1013   44.8389 C   0  0  0  0  0  0  0  0  0  0  0  0
  108.4590   62.0023   44.1666 C   0  0  0  0  0  0  0  0  0  0  0  0
  108.0380   64.7251   43.7284 C   0  0  0  0  0  0  0  0  0  0  0  0
  109.0277   62.6261   43.0562 C   0  0  0  0  0  0  0  0  0  0  0  0
  110.1499   67.2113   35.2416 C   0  0  0  0  0  0  0  0  0  0  0  0
  109.3255   67.4495   34.1420 C   0  0  0  0  0  0  0  0  0  0  0  0
  109.9661   69.7789   34.1664 C   0  0  0  0  0  0  0  0  0  0  0  0
  108.8172   63.9875   42.8370 C   0  0  0  0  0  0  0  0  0  0  0  0
  110.8824   68.2569   35.8037 C   0  0  0  0  0  0  0  0  0  0  0  0
  109.2336   68.7333   33.6043 C   0  0  0  0  0  0  0  0  0  0  0  0
  110.7905   69.5407   35.2661 C   0  0  0  0  0  0  0  0  0  0  0  0
  110.7697   65.7041   39.7708 C   0  0  0  0  0  0  0  0  0  0  0  0
  110.1148   68.1741   38.6644 C   0  0  0  0  0  0  0  0  0  0  0  0
  111.0728   67.5027   38.0097 C   0  0  0  0  0  0  0  0  0  0  0  0
  109.8208   66.4761   40.3370 C   0  0  0  0  0  0  0  0  0  0  0  0
  111.4712   66.1756   38.5466 C   0  0  0  0  0  0  0  0  0  0  0  0
  108.4283   68.5623   40.4282 C   0  0  0  0  0  0  0  0  0  0  0  0
  109.1228   65.9815   41.5776 C   0  0  0  0  0  0  0  0  0  0  0  0
  109.4611   67.7303   39.8083 N   0  0  0  0  0  0  0  0  0  0  0  0
  112.3379   65.4944   38.0106 O   0  0  0  0  0  0  0  0  0  0  0  0
  111.6832   67.9946   36.8819 O   0  0  0  0  0  0  0  0  0  0  0  0
  109.3764   64.6012   41.7419 O   0  0  0  0  0  0  0  0  0  0  0  0
  108.2158   69.0259   32.2477 Cl  0  0  0  0  0  0  0  0  0  0  0  0
  111.6849   70.8517   35.9420 Cl  0  0  0  0  0  0  0  0  0  0  0  0
  107.2311   62.2481   45.9337 H   0  0  0  0  0  0  0  0  0  0  0  0
  106.8549   64.6830   45.5418 H   0  0  0  0  0  0  0  0  0  0  0  0
  108.6250   60.9287   44.3394 H   0  0  0  0  0  0  0  0  0  0  0  0
  107.8720   65.7987   43.5556 H   0  0  0  0  0  0  0  0  0  0  0  0
  109.6422   62.0444   42.3533 H   0  0  0  0  0  0  0  0  0  0  0  0
  110.2224   66.1989   35.6655 H   0  0  0  0  0  0  0  0  0  0  0  0
  108.7478   66.6249   33.6988 H   0  0  0  0  0  0  0  0  0  0  0  0
  109.8936   70.7913   33.7424 H   0  0  0  0  0  0  0  0  0  0  0  0
  111.0244   64.7293   40.2122 H   0  0  0  0  0  0  0  0  0  0  0  0
  109.8222   69.1560   38.2640 H   0  0  0  0  0  0  0  0  0  0  0  0
  108.5116   68.4952   41.5230 H   0  0  0  0  0  0  0  0  0  0  0  0
  108.5621   69.6079   40.1137 H   0  0  0  0  0  0  0  0  0  0  0  0
  107.4352   68.2090   40.1137 H   0  0  0  0  0  0  0  0  0  0  0  0
  109.4991   66.5303   42.4535 H   0  0  0  0  0  0  0  0  0  0  0  0
  108.0397   66.1462   41.4793 H   0  0  0  0  0  0  0  0  0  0  0  0
  1  2  2  0
  1  3  1  0
  2  4  1  0
  3  5  2  0
  4  9  2  0
  5  9  1  0
  6  7  2  0
  6 10  1  0
  7 11  1  0
  8 11  2  0
  8 12  1  0
  9 23  1  0
 10 12  2  0
 10 22  1  0
 11 24  1  0
 12 25  1  0
 13 16  2  0
 13 17  1  0
 14 15  2  0
 14 20  1  0
 15 17  1  0
 15 22  1  0
 16 19  1  0
 16 20  1  0
 17 21  2  0
 18 20  1  0
 19 23  1  0
  1 26  1  0
  2 27  1  0
  3 28  1  0
  4 29  1  0
  5 30  1  0
  6 31  1  0
  7 32  1  0
  8 33  1  0
 13 34  1  0
 14 35  1  0
 18 36  1  0
 18 37  1  0
 18 38  1  0
 19 39  1  0
 19 40  1  0
M  END
>  <Name>  (196) 
CHEMBL3623417

>  <Comment>  (196) 
 Schrodinger Suite 2021-4.

>  <s_m_entry_id>  (196) 
1118

>  <class_value>  (196) 
1

>  <s_m_Source_Path>  (196) 
C:\Users\vinicius\Desktop

>  <s_m_Source_File>  (196) 
Ligands_Saureus_o.sdf

>  <i_m_Source_File_Index>  (196) 
36

>  <r_lp_tautomer_probability>  (196) 
1

>  <r_epik_Ionization_Penalty>  (196) 
0

>  <r_epik_State_Penalty>  (196) 
0

>  <i_epik_Tot_Q>  (196) 
0

>  <i_f3d_flags>  (196) 
0

>  <s_m_job_name>  (196) 
Saureus_o

>  <FRED Chemgauss4 score>  (196) 
-11.580507

>  <Set>  (196) 
training

>  <HBA count>  (196) 
4

>  <HBD count>  (196) 
0

>  <ExactMolWt>  (196) 
375.04289870000036

>  <NumRotatableBounds>  (196) 
6

>  <FractionCsp3>  (196) 
0.10526315789473684

>  <TPSA>  (196) 
40.46

>  <LogP_WildmanCrippen>  (196) 
5.063400000000003

>  <General_Cluster>  (196) 
1

>  <Biological_Cluster>  (196) 
1

>  <Physicochemical_Cluster>  (196) 
3

>  <Structural_Cluster>  (196) 
5

$$$$
CHEMBL70830
     RDKit          3D

 56 60  0  0  0  0  0  0  0  0999 V2000
  111.2609   65.5425   33.3040 C   0  0  0  0  0  0  0  0  0  0  0  0
  110.6582   66.7706   33.0408 C   0  0  0  0  0  0  0  0  0  0  0  0
  111.5482   65.1523   34.6169 C   0  0  0  0  0  0  0  0  0  0  0  0
  108.2643   66.6663   41.3991 C   0  0  0  0  0  0  0  0  0  0  0  0
  109.9657   68.0101   42.4652 C   0  0  0  0  0  0  0  0  0  0  0  0
  111.7680   70.7306   36.4318 C   0  0  0  0  0  0  0  0  0  0  0  0
  110.0502   70.7229   34.7330 C   0  0  0  0  0  0  0  0  0  0  0  0
  110.3235   67.6461   34.0776 C   0  0  0  0  0  0  0  0  0  0  0  0
  107.2776   67.5071   41.9140 C   0  0  0  0  0  0  0  0  0  0  0  0
  108.9790   68.8510   42.9800 C   0  0  0  0  0  0  0  0  0  0  0  0
  112.4745   71.6949   35.7132 C   0  0  0  0  0  0  0  0  0  0  0  0
  110.7566   71.6873   34.0143 C   0  0  0  0  0  0  0  0  0  0  0  0
  111.2213   66.0178   35.6800 C   0  0  0  0  0  0  0  0  0  0  0  0
  109.6083   66.9177   41.6748 C   0  0  0  0  0  0  0  0  0  0  0  0
  111.3609   65.9559   37.0932 C   0  0  0  0  0  0  0  0  0  0  0  0
  110.5559   70.2445   35.9417 C   0  0  0  0  0  0  0  0  0  0  0  0
  110.6155   67.2447   35.3862 C   0  0  0  0  0  0  0  0  0  0  0  0
  107.6349   68.5995   42.7044 C   0  0  0  0  0  0  0  0  0  0  0  0
  111.9688   72.1733   34.5044 C   0  0  0  0  0  0  0  0  0  0  0  0
  110.8422   67.1218   37.6156 C   0  0  0  0  0  0  0  0  0  0  0  0
  110.6487   66.0311   41.1319 C   0  0  0  0  0  0  0  0  0  0  0  0
  111.9221   64.8966   37.9745 C   0  0  0  0  0  0  0  0  0  0  0  0
  110.7801   67.5012   39.0511 C   0  0  0  0  0  0  0  0  0  0  0  0
  112.2829   65.4949   39.3450 C   0  0  0  0  0  0  0  0  0  0  0  0
  106.7831   70.1516   44.4625 C   0  0  0  0  0  0  0  0  0  0  0  0
  109.7933   69.2045   36.7172 C   0  0  0  0  0  0  0  0  0  0  0  0
  110.3979   67.8959   36.5823 N   0  0  0  0  0  0  0  0  0  0  0  0
  111.1915   66.3382   39.8785 N   0  0  0  0  0  0  0  0  0  0  0  0
  106.6373   69.4496   43.2249 N   0  0  0  0  0  0  0  0  0  0  0  0
  110.9721   65.0751   41.8355 O   0  0  0  0  0  0  0  0  0  0  0  0
  112.6577   73.1153   33.8039 O   0  0  0  0  0  0  0  0  0  0  0  0
  111.5140   64.8715   32.4699 H   0  0  0  0  0  0  0  0  0  0  0  0
  110.4423   67.0558   32.0006 H   0  0  0  0  0  0  0  0  0  0  0  0
  112.0239   64.1808   34.8169 H   0  0  0  0  0  0  0  0  0  0  0  0
  107.9825   65.8050   40.7756 H   0  0  0  0  0  0  0  0  0  0  0  0
  111.0256   68.2084   42.6825 H   0  0  0  0  0  0  0  0  0  0  0  0
  112.1667   70.3534   37.3851 H   0  0  0  0  0  0  0  0  0  0  0  0
  109.0943   70.3396   34.3466 H   0  0  0  0  0  0  0  0  0  0  0  0
  109.8474   68.6163   33.8724 H   0  0  0  0  0  0  0  0  0  0  0  0
  106.2177   67.3087   41.6967 H   0  0  0  0  0  0  0  0  0  0  0  0
  109.2608   69.7124   43.6033 H   0  0  0  0  0  0  0  0  0  0  0  0
  113.4304   72.0781   36.0997 H   0  0  0  0  0  0  0  0  0  0  0  0
  110.3578   72.0646   33.0611 H   0  0  0  0  0  0  0  0  0  0  0  0
  111.1753   64.1002   38.1090 H   0  0  0  0  0  0  0  0  0  0  0  0
  112.8284   64.4808   37.5101 H   0  0  0  0  0  0  0  0  0  0  0  0
  111.4595   68.3457   39.2388 H   0  0  0  0  0  0  0  0  0  0  0  0
  109.7536   67.7978   39.3124 H   0  0  0  0  0  0  0  0  0  0  0  0
  112.4777   64.6748   40.0518 H   0  0  0  0  0  0  0  0  0  0  0  0
  113.1742   66.1271   39.2191 H   0  0  0  0  0  0  0  0  0  0  0  0
  106.6380   69.4529   45.2996 H   0  0  0  0  0  0  0  0  0  0  0  0
  107.7911   70.5882   44.5198 H   0  0  0  0  0  0  0  0  0  0  0  0
  106.0323   70.9535   44.5198 H   0  0  0  0  0  0  0  0  0  0  0  0
  109.7838   69.4864   37.7804 H   0  0  0  0  0  0  0  0  0  0  0  0
  108.7698   69.1558   36.3170 H   0  0  0  0  0  0  0  0  0  0  0  0
  105.7652   69.5703   42.6902 H   0  0  0  0  0  0  0  0  0  0  0  0
  112.2989   73.4549   32.9460 H   0  0  0  0  0  0  0  0  0  0  0  0
  1  2  2  0
  1  3  1  0
  2  8  1  0
  3 13  2  0
  4  9  2  0
  4 14  1  0
  5 10  1  0
  5 14  2  0
  6 11  2  0
  6 16  1  0
  7 12  1  0
  7 16  2  0
  8 17  2  0
  9 18  1  0
 10 18  2  0
 11 19  1  0
 12 19  2  0
 13 15  1  0
 13 17  1  0
 14 21  1  0
 15 20  2  0
 15 22  1  0
 16 26  1  0
 17 27  1  0
 18 29  1  0
 19 31  1  0
 20 23  1  0
 20 27  1  0
 21 28  1  0
 21 30  2  0
 22 24  1  0
 23 28  1  0
 24 28  1  0
 25 29  1  0
 26 27  1  0
  1 32  1  0
  2 33  1  0
  3 34  1  0
  4 35  1  0
  5 36  1  0
  6 37  1  0
  7 38  1  0
  8 39  1  0
  9 40  1  0
 10 41  1  0
 11 42  1  0
 12 43  1  0
 22 44  1  0
 22 45  1  0
 23 46  1  0
 23 47  1  0
 24 48  1  0
 24 49  1  0
 25 50  1  0
 25 51  1  0
 25 52  1  0
 26 53  1  0
 26 54  1  0
 29 55  1  0
 31 56  1  0
M  END
>  <Name>  (197) 
CHEMBL70830

>  <Comment>  (197) 
 Schrodinger Suite 2021-4.

>  <s_m_entry_id>  (197) 
1222

>  <class_value>  (197) 
0

>  <s_m_Source_Path>  (197) 
C:\Users\vinicius\Desktop

>  <s_m_Source_File>  (197) 
Ligands_Saureus_o.sdf

>  <i_m_Source_File_Index>  (197) 
117

>  <r_lp_tautomer_probability>  (197) 
0.999999999997365

>  <r_epik_Ionization_Penalty>  (197) 
0.0012

>  <r_epik_State_Penalty>  (197) 
0.0006

>  <i_epik_Tot_Q>  (197) 
0

>  <i_f3d_flags>  (197) 
0

>  <s_m_job_name>  (197) 
Saureus_o

>  <FRED Chemgauss4 score>  (197) 
-13.155411

>  <Set>  (197) 
training

>  <HBA count>  (197) 
4

>  <HBD count>  (197) 
2

>  <ExactMolWt>  (197) 
411.1946770400007

>  <NumRotatableBounds>  (197) 
6

>  <FractionCsp3>  (197) 
0.19230769230769232

>  <TPSA>  (197) 
57.5

>  <LogP_WildmanCrippen>  (197) 
4.635400000000004

>  <General_Cluster>  (197) 
3

>  <Biological_Cluster>  (197) 
2

>  <Physicochemical_Cluster>  (197) 
1

>  <Structural_Cluster>  (197) 
4

$$$$
CHEMBL44183
     RDKit          3D

 50 53  0  0  0  0  0  0  0  0999 V2000
  111.6111   73.0503   34.5883 C   0  0  0  0  0  0  0  0  0  0  0  0
  111.1439   73.0332   33.2756 C   0  0  0  0  0  0  0  0  0  0  0  0
  111.5158   71.9123   35.3975 C   0  0  0  0  0  0  0  0  0  0  0  0
  110.5683   71.8820   32.7304 C   0  0  0  0  0  0  0  0  0  0  0  0
  110.6872   69.4389   35.3880 C   0  0  0  0  0  0  0  0  0  0  0  0
  110.2445   67.3050   39.4417 C   0  0  0  0  0  0  0  0  0  0  0  0
  112.2050   66.2272   40.2395 C   0  0  0  0  0  0  0  0  0  0  0  0
  110.9391   70.7400   34.8697 C   0  0  0  0  0  0  0  0  0  0  0  0
  111.3997   66.5818   39.1717 C   0  0  0  0  0  0  0  0  0  0  0  0
  109.9209   67.6318   40.7594 C   0  0  0  0  0  0  0  0  0  0  0  0
  110.4796   70.7519   33.5510 C   0  0  0  0  0  0  0  0  0  0  0  0
  110.0904   68.7000   34.3926 C   0  0  0  0  0  0  0  0  0  0  0  0
  110.7930   67.2238   41.7681 C   0  0  0  0  0  0  0  0  0  0  0  0
  109.3097   68.1254   43.5209 C   0  0  0  0  0  0  0  0  0  0  0  0
  111.7585   66.2228   37.8118 C   0  0  0  0  0  0  0  0  0  0  0  0
  110.9053   66.1826   36.7612 C   0  0  0  0  0  0  0  0  0  0  0  0
  111.3907   65.7645   35.4130 C   0  0  0  0  0  0  0  0  0  0  0  0
  108.7371   68.4907   41.0863 C   0  0  0  0  0  0  0  0  0  0  0  0
  108.2115   68.1782   42.4784 C   0  0  0  0  0  0  0  0  0  0  0  0
  109.3900   69.0904   32.0256 C   0  0  0  0  0  0  0  0  0  0  0  0
  111.1259   65.9485   32.9691 C   0  0  0  0  0  0  0  0  0  0  0  0
  109.6182   67.2749   34.4055 C   0  0  0  0  0  0  0  0  0  0  0  0
  111.9345   66.5364   41.5273 N   0  0  0  0  0  0  0  0  0  0  0  0
  109.9697   69.5004   33.2884 N   0  0  0  0  0  0  0  0  0  0  0  0
  110.4997   67.5634   43.1027 N   0  0  0  0  0  0  0  0  0  0  0  0
  110.7296   66.3295   34.3187 N   0  0  0  0  0  0  0  0  0  0  0  0
  109.1056   68.4768   44.6828 O   0  0  0  0  0  0  0  0  0  0  0  0
  112.3074   64.9470   35.3191 O   0  0  0  0  0  0  0  0  0  0  0  0
  112.0602   73.9691   34.9934 H   0  0  0  0  0  0  0  0  0  0  0  0
  111.2294   73.9399   32.6587 H   0  0  0  0  0  0  0  0  0  0  0  0
  111.8866   71.9328   36.4329 H   0  0  0  0  0  0  0  0  0  0  0  0
  110.1987   71.8650   31.6945 H   0  0  0  0  0  0  0  0  0  0  0  0
  110.9266   69.0871   36.4023 H   0  0  0  0  0  0  0  0  0  0  0  0
  109.5862   67.6194   38.6184 H   0  0  0  0  0  0  0  0  0  0  0  0
  113.1223   65.6584   40.0273 H   0  0  0  0  0  0  0  0  0  0  0  0
  112.8096   65.9621   37.6190 H   0  0  0  0  0  0  0  0  0  0  0  0
  109.8500   66.4592   36.9018 H   0  0  0  0  0  0  0  0  0  0  0  0
  109.0359   69.5484   41.0426 H   0  0  0  0  0  0  0  0  0  0  0  0
  107.9411   68.2873   40.3549 H   0  0  0  0  0  0  0  0  0  0  0  0
  107.7044   67.2024   42.4520 H   0  0  0  0  0  0  0  0  0  0  0  0
  107.5229   68.9876   42.7625 H   0  0  0  0  0  0  0  0  0  0  0  0
  108.5052   68.4646   32.2143 H   0  0  0  0  0  0  0  0  0  0  0  0
  109.0937   69.9809   31.4518 H   0  0  0  0  0  0  0  0  0  0  0  0
  110.1309   68.5143   31.4518 H   0  0  0  0  0  0  0  0  0  0  0  0
  111.9180   65.1870   33.0208 H   0  0  0  0  0  0  0  0  0  0  0  0
  110.2570   65.5380   32.4339 H   0  0  0  0  0  0  0  0  0  0  0  0
  111.5019   66.8329   32.4339 H   0  0  0  0  0  0  0  0  0  0  0  0
  109.0680   67.0914   35.3402 H   0  0  0  0  0  0  0  0  0  0  0  0
  108.9729   67.1226   33.5277 H   0  0  0  0  0  0  0  0  0  0  0  0
  111.2211   67.3804   43.8147 H   0  0  0  0  0  0  0  0  0  0  0  0
  1  2  2  0
  1  3  1  0
  2  4  1  0
  3  8  2  0
  4 11  2  0
  5  8  1  0
  5 12  2  0
  6  9  2  0
  6 10  1  0
  7  9  1  0
  7 23  2  0
  8 11  1  0
  9 15  1  0
 10 13  2  0
 10 18  1  0
 11 24  1  0
 12 22  1  0
 12 24  1  0
 13 23  1  0
 13 25  1  0
 14 19  1  0
 14 25  1  0
 14 27  2  0
 15 16  2  0
 16 17  1  0
 17 26  1  0
 17 28  2  0
 18 19  1  0
 20 24  1  0
 21 26  1  0
 22 26  1  0
  1 29  1  0
  2 30  1  0
  3 31  1  0
  4 32  1  0
  5 33  1  0
  6 34  1  0
  7 35  1  0
 15 36  1  0
 16 37  1  0
 18 38  1  0
 18 39  1  0
 19 40  1  0
 19 41  1  0
 20 42  1  0
 20 43  1  0
 20 44  1  0
 21 45  1  0
 21 46  1  0
 21 47  1  0
 22 48  1  0
 22 49  1  0
 25 50  1  0
M  END
>  <Name>  (198) 
CHEMBL44183

>  <Comment>  (198) 
 Schrodinger Suite 2021-4.

>  <s_m_entry_id>  (198) 
1104

>  <class_value>  (198) 
1

>  <s_m_Source_Path>  (198) 
C:\Users\vinicius\Desktop

>  <s_m_Source_File>  (198) 
Ligands_Saureus_o.sdf

>  <i_m_Source_File_Index>  (198) 
26

>  <r_lp_tautomer_probability>  (198) 
1

>  <r_epik_Ionization_Penalty>  (198) 
0.0002

>  <r_epik_State_Penalty>  (198) 
0

>  <i_epik_Tot_Q>  (198) 
0

>  <i_f3d_flags>  (198) 
0

>  <s_m_job_name>  (198) 
Saureus_o

>  <FRED Chemgauss4 score>  (198) 
-17.638794

>  <Set>  (198) 
training

>  <HBA count>  (198) 
4

>  <HBD count>  (198) 
1

>  <ExactMolWt>  (198) 
374.17427594400067

>  <NumRotatableBounds>  (198) 
6

>  <FractionCsp3>  (198) 
0.22727272727272727

>  <TPSA>  (198) 
67.23

>  <LogP_WildmanCrippen>  (198) 
3.129800000000002

>  <General_Cluster>  (198) 
1

>  <Biological_Cluster>  (198) 
1

>  <Physicochemical_Cluster>  (198) 
1

>  <Structural_Cluster>  (198) 
2

$$$$
CHEMBL62542
     RDKit          3D

 31 33  0  0  0  0  0  0  0  0999 V2000
  110.4864   70.4224   34.4399 C   0  0  0  0  0  0  0  0  0  0  0  0
  111.0346   69.4108   32.3156 C   0  0  0  0  0  0  0  0  0  0  0  0
  111.2836   71.5220   34.1221 C   0  0  0  0  0  0  0  0  0  0  0  0
  111.8318   70.5104   31.9977 C   0  0  0  0  0  0  0  0  0  0  0  0
  112.0406   64.9482   38.3921 C   0  0  0  0  0  0  0  0  0  0  0  0
  110.2548   67.5083   36.1932 C   0  0  0  0  0  0  0  0  0  0  0  0
  112.2850   64.8860   39.7463 C   0  0  0  0  0  0  0  0  0  0  0  0
  111.0424   66.9154   39.1242 C   0  0  0  0  0  0  0  0  0  0  0  0
  110.7876   66.1205   34.5664 C   0  0  0  0  0  0  0  0  0  0  0  0
  111.3209   66.1238   38.0316 C   0  0  0  0  0  0  0  0  0  0  0  0
  110.3620   69.3668   33.5367 C   0  0  0  0  0  0  0  0  0  0  0  0
  111.9563   71.5660   32.9010 C   0  0  0  0  0  0  0  0  0  0  0  0
  110.9442   66.4176   36.6682 C   0  0  0  0  0  0  0  0  0  0  0  0
  109.5102   68.1905   33.8758 C   0  0  0  0  0  0  0  0  0  0  0  0
  111.2733   65.5576   35.6505 N   0  0  0  0  0  0  0  0  0  0  0  0
  110.1627   67.3041   34.8452 N   0  0  0  0  0  0  0  0  0  0  0  0
  112.7608   72.6784   32.5784 N   0  0  0  0  0  0  0  0  0  0  0  0
  111.6480   66.2411   40.5771 S   0  0  0  0  0  0  0  0  0  0  0  0
  109.9558   70.3877   35.4028 H   0  0  0  0  0  0  0  0  0  0  0  0
  110.9364   68.5784   31.6033 H   0  0  0  0  0  0  0  0  0  0  0  0
  111.3818   72.3544   34.8344 H   0  0  0  0  0  0  0  0  0  0  0  0
  112.3623   70.5451   31.0347 H   0  0  0  0  0  0  0  0  0  0  0  0
  112.3632   64.1804   37.6734 H   0  0  0  0  0  0  0  0  0  0  0  0
  109.8634   68.3584   36.7713 H   0  0  0  0  0  0  0  0  0  0  0  0
  112.8257   64.0628   40.2363 H   0  0  0  0  0  0  0  0  0  0  0  0
  110.4955   67.8683   39.0697 H   0  0  0  0  0  0  0  0  0  0  0  0
  110.8735   65.6913   33.5573 H   0  0  0  0  0  0  0  0  0  0  0  0
  108.5625   68.5492   34.3037 H   0  0  0  0  0  0  0  0  0  0  0  0
  109.3369   67.6177   32.9528 H   0  0  0  0  0  0  0  0  0  0  0  0
  113.2574   72.7106   31.6766 H   0  0  0  0  0  0  0  0  0  0  0  0
  112.8518   73.4587   33.2446 H   0  0  0  0  0  0  0  0  0  0  0  0
  1  3  2  0
  1 11  1  0
  2  4  1  0
  2 11  2  0
  3 12  1  0
  4 12  2  0
  5  7  2  0
  5 10  1  0
  6 13  2  0
  6 16  1  0
  7 18  1  0
  8 10  2  0
  8 18  1  0
  9 15  2  0
  9 16  1  0
 10 13  1  0
 11 14  1  0
 12 17  1  0
 13 15  1  0
 14 16  1  0
  1 19  1  0
  2 20  1  0
  3 21  1  0
  4 22  1  0
  5 23  1  0
  6 24  1  0
  7 25  1  0
  8 26  1  0
  9 27  1  0
 14 28  1  0
 14 29  1  0
 17 30  1  0
 17 31  1  0
M  END
>  <Name>  (199) 
CHEMBL62542

>  <Comment>  (199) 
 Schrodinger Suite 2021-4.

>  <s_m_entry_id>  (199) 
1306

>  <class_value>  (199) 
0

>  <s_m_Source_Path>  (199) 
C:\Users\vinicius\Desktop

>  <s_m_Source_File>  (199) 
Ligands_Saureus_o.sdf

>  <i_m_Source_File_Index>  (199) 
182

>  <r_lp_tautomer_probability>  (199) 
1

>  <r_epik_Ionization_Penalty>  (199) 
0.3172

>  <r_epik_State_Penalty>  (199) 
0.3261

>  <i_epik_Tot_Q>  (199) 
0

>  <i_f3d_flags>  (199) 
0

>  <s_m_job_name>  (199) 
Saureus_o

>  <FRED Chemgauss4 score>  (199) 
-13.232772

>  <Set>  (199) 
training

>  <HBA count>  (199) 
4

>  <HBD count>  (199) 
1

>  <ExactMolWt>  (199) 
255.083018416

>  <NumRotatableBounds>  (199) 
4

>  <FractionCsp3>  (199) 
0.07142857142857142

>  <TPSA>  (199) 
43.84

>  <LogP_WildmanCrippen>  (199) 
3.2421000000000015

>  <General_Cluster>  (199) 
4

>  <Biological_Cluster>  (199) 
2

>  <Physicochemical_Cluster>  (199) 
3

>  <Structural_Cluster>  (199) 
1

$$$$
CHEMBL73331
     RDKit          3D

 53 57  0  0  0  0  0  0  0  0999 V2000
  111.5176   65.4208   33.0008 C   0  0  0  0  0  0  0  0  0  0  0  0
  110.9867   66.6638   32.6630 C   0  0  0  0  0  0  0  0  0  0  0  0
  111.5823   65.0087   34.3366 C   0  0  0  0  0  0  0  0  0  0  0  0
  109.8896   67.9113   41.9559 C   0  0  0  0  0  0  0  0  0  0  0  0
  107.6853   66.9975   41.5775 C   0  0  0  0  0  0  0  0  0  0  0  0
  111.6030   70.5583   36.2498 C   0  0  0  0  0  0  0  0  0  0  0  0
  110.1822   70.6057   34.2963 C   0  0  0  0  0  0  0  0  0  0  0  0
  110.5043   67.5327   33.6458 C   0  0  0  0  0  0  0  0  0  0  0  0
  109.3296   68.9607   42.6843 C   0  0  0  0  0  0  0  0  0  0  0  0
  107.1252   68.0470   42.3060 C   0  0  0  0  0  0  0  0  0  0  0  0
  112.4329   71.5175   35.6695 C   0  0  0  0  0  0  0  0  0  0  0  0
  111.0121   71.5650   33.7160 C   0  0  0  0  0  0  0  0  0  0  0  0
  111.1031   65.8670   35.3465 C   0  0  0  0  0  0  0  0  0  0  0  0
  109.0674   66.9297   41.4024 C   0  0  0  0  0  0  0  0  0  0  0  0
  111.0116   65.7846   36.7625 C   0  0  0  0  0  0  0  0  0  0  0  0
  110.4777   70.1023   35.5632 C   0  0  0  0  0  0  0  0  0  0  0  0
  110.5742   67.1091   34.9780 C   0  0  0  0  0  0  0  0  0  0  0  0
  107.9474   69.0286   42.8594 C   0  0  0  0  0  0  0  0  0  0  0  0
  112.1375   72.0209   34.4027 C   0  0  0  0  0  0  0  0  0  0  0  0
  110.4357   66.9538   37.2126 C   0  0  0  0  0  0  0  0  0  0  0  0
  109.6580   65.8231   40.6343 C   0  0  0  0  0  0  0  0  0  0  0  0
  111.4046   64.7035   37.7062 C   0  0  0  0  0  0  0  0  0  0  0  0
  110.1492   67.3164   38.6250 C   0  0  0  0  0  0  0  0  0  0  0  0
  111.5497   65.2775   39.1261 C   0  0  0  0  0  0  0  0  0  0  0  0
  109.5819   69.0679   36.1893 C   0  0  0  0  0  0  0  0  0  0  0  0
  110.1776   67.7495   36.1333 N   0  0  0  0  0  0  0  0  0  0  0  0
  110.4013   66.1353   39.4897 N   0  0  0  0  0  0  0  0  0  0  0  0
  107.3811   70.0897   43.5959 N   0  0  0  0  0  0  0  0  0  0  0  0
  109.4554   64.6895   41.0673 O   0  0  0  0  0  0  0  0  0  0  0  0
  112.9467   72.9578   33.8371 O   0  0  0  0  0  0  0  0  0  0  0  0
  111.8903   64.7554   32.2081 H   0  0  0  0  0  0  0  0  0  0  0  0
  110.9465   66.9662   31.6061 H   0  0  0  0  0  0  0  0  0  0  0  0
  112.0026   64.0257   34.5955 H   0  0  0  0  0  0  0  0  0  0  0  0
  110.9796   67.8577   41.8179 H   0  0  0  0  0  0  0  0  0  0  0  0
  107.0370   66.2234   41.1411 H   0  0  0  0  0  0  0  0  0  0  0  0
  111.8359   70.1614   37.2489 H   0  0  0  0  0  0  0  0  0  0  0  0
  109.2947   70.2462   33.7549 H   0  0  0  0  0  0  0  0  0  0  0  0
  110.0846   68.5146   33.3817 H   0  0  0  0  0  0  0  0  0  0  0  0
  109.9780   69.7348   43.1207 H   0  0  0  0  0  0  0  0  0  0  0  0
  106.0352   68.1005   42.4441 H   0  0  0  0  0  0  0  0  0  0  0  0
  113.3204   71.8770   36.2109 H   0  0  0  0  0  0  0  0  0  0  0  0
  110.7791   71.9620   32.7169 H   0  0  0  0  0  0  0  0  0  0  0  0
  110.6322   63.9203   37.7062 H   0  0  0  0  0  0  0  0  0  0  0  0
  112.3666   64.2757   37.3876 H   0  0  0  0  0  0  0  0  0  0  0  0
  110.8039   68.1450   38.9328 H   0  0  0  0  0  0  0  0  0  0  0  0
  109.0993   67.6298   38.7219 H   0  0  0  0  0  0  0  0  0  0  0  0
  111.6136   64.4450   39.8423 H   0  0  0  0  0  0  0  0  0  0  0  0
  112.4605   65.8936   39.1553 H   0  0  0  0  0  0  0  0  0  0  0  0
  109.4057   69.3366   37.2413 H   0  0  0  0  0  0  0  0  0  0  0  0
  108.6358   69.0444   35.6287 H   0  0  0  0  0  0  0  0  0  0  0  0
  106.3605   70.1398   43.7252 H   0  0  0  0  0  0  0  0  0  0  0  0
  107.9881   70.8146   44.0045 H   0  0  0  0  0  0  0  0  0  0  0  0
  112.7371   73.3151   32.9380 H   0  0  0  0  0  0  0  0  0  0  0  0
  1  2  2  0
  1  3  1  0
  2  8  1  0
  3 13  2  0
  4  9  2  0
  4 14  1  0
  5 10  1  0
  5 14  2  0
  6 11  2  0
  6 16  1  0
  7 12  1  0
  7 16  2  0
  8 17  2  0
  9 18  1  0
 10 18  2  0
 11 19  1  0
 12 19  2  0
 13 15  1  0
 13 17  1  0
 14 21  1  0
 15 20  2  0
 15 22  1  0
 16 25  1  0
 17 26  1  0
 18 28  1  0
 19 30  1  0
 20 23  1  0
 20 26  1  0
 21 27  1  0
 21 29  2  0
 22 24  1  0
 23 27  1  0
 24 27  1  0
 25 26  1  0
  1 31  1  0
  2 32  1  0
  3 33  1  0
  4 34  1  0
  5 35  1  0
  6 36  1  0
  7 37  1  0
  8 38  1  0
  9 39  1  0
 10 40  1  0
 11 41  1  0
 12 42  1  0
 22 43  1  0
 22 44  1  0
 23 45  1  0
 23 46  1  0
 24 47  1  0
 24 48  1  0
 25 49  1  0
 25 50  1  0
 28 51  1  0
 28 52  1  0
 30 53  1  0
M  END
>  <Name>  (200) 
CHEMBL73331

>  <Comment>  (200) 
 Schrodinger Suite 2021-4.

>  <s_m_entry_id>  (200) 
1194

>  <class_value>  (200) 
1

>  <s_m_Source_Path>  (200) 
C:\Users\vinicius\Desktop

>  <s_m_Source_File>  (200) 
Ligands_Saureus_o.sdf

>  <i_m_Source_File_Index>  (200) 
95

>  <r_lp_tautomer_probability>  (200) 
0.999999999997365

>  <r_epik_Ionization_Penalty>  (200) 
0.0011

>  <r_epik_State_Penalty>  (200) 
0.0006

>  <i_epik_Tot_Q>  (200) 
0

>  <i_f3d_flags>  (200) 
0

>  <s_m_job_name>  (200) 
Saureus_o

>  <FRED Chemgauss4 score>  (200) 
-11.958582

>  <Set>  (200) 
training

>  <HBA count>  (200) 
4

>  <HBD count>  (200) 
2

>  <ExactMolWt>  (200) 
397.17902697600067

>  <NumRotatableBounds>  (200) 
5

>  <FractionCsp3>  (200) 
0.16

>  <TPSA>  (200) 
71.49

>  <LogP_WildmanCrippen>  (200) 
4.175900000000003

>  <General_Cluster>  (200) 
3

>  <Biological_Cluster>  (200) 
1

>  <Physicochemical_Cluster>  (200) 
1

>  <Structural_Cluster>  (200) 
4

$$$$
CHEMBL3322711
     RDKit          3D

 51 54  0  0  0  0  0  0  0  0999 V2000
  112.9523   72.8504   32.7339 C   0  0  0  0  0  0  0  0  0  0  0  0
  112.5514   73.7433   33.7276 C   0  0  0  0  0  0  0  0  0  0  0  0
  112.1329   71.7750   32.3905 C   0  0  0  0  0  0  0  0  0  0  0  0
  109.8756   66.2665   39.2127 C   0  0  0  0  0  0  0  0  0  0  0  0
  110.5115   72.4855   34.0347 C   0  0  0  0  0  0  0  0  0  0  0  0
  112.1849   66.0931   39.7407 C   0  0  0  0  0  0  0  0  0  0  0  0
  111.1821   66.0584   38.7880 C   0  0  0  0  0  0  0  0  0  0  0  0
  109.6104   66.4812   40.5659 C   0  0  0  0  0  0  0  0  0  0  0  0
  111.3310   73.5609   34.3781 C   0  0  0  0  0  0  0  0  0  0  0  0
  110.9125   71.5926   33.0409 C   0  0  0  0  0  0  0  0  0  0  0  0
  110.6881   66.4920   41.4507 C   0  0  0  0  0  0  0  0  0  0  0  0
  109.1920   66.7831   43.3903 C   0  0  0  0  0  0  0  0  0  0  0  0
  111.4871   65.8268   37.3880 C   0  0  0  0  0  0  0  0  0  0  0  0
  110.6932   66.1513   36.3403 C   0  0  0  0  0  0  0  0  0  0  0  0
  111.0430   65.8867   34.9329 C   0  0  0  0  0  0  0  0  0  0  0  0
  108.2303   66.8043   41.0530 C   0  0  0  0  0  0  0  0  0  0  0  0
  108.0476   66.3552   42.4941 C   0  0  0  0  0  0  0  0  0  0  0  0
  109.6934   67.9517   34.1306 C   0  0  0  0  0  0  0  0  0  0  0  0
  110.6453   66.8002   32.5835 C   0  0  0  0  0  0  0  0  0  0  0  0
  109.9138   68.1526   32.6209 C   0  0  0  0  0  0  0  0  0  0  0  0
  110.9027   74.5154   35.4409 C   0  0  0  0  0  0  0  0  0  0  0  0
  110.7508   69.3610   32.2349 C   0  0  0  0  0  0  0  0  0  0  0  0
  111.9713   66.3121   41.0574 N   0  0  0  0  0  0  0  0  0  0  0  0
  110.4473   66.7312   42.8172 N   0  0  0  0  0  0  0  0  0  0  0  0
  110.5294   66.7721   34.0291 N   0  0  0  0  0  0  0  0  0  0  0  0
  109.0064   67.0628   44.5746 O   0  0  0  0  0  0  0  0  0  0  0  0
  111.7495   64.9230   34.6480 O   0  0  0  0  0  0  0  0  0  0  0  0
  110.1065   70.5356   32.7028 O   0  0  0  0  0  0  0  0  0  0  0  0
  113.9147   72.9943   32.2210 H   0  0  0  0  0  0  0  0  0  0  0  0
  113.1976   74.5913   33.9983 H   0  0  0  0  0  0  0  0  0  0  0  0
  112.4491   71.0708   31.6068 H   0  0  0  0  0  0  0  0  0  0  0  0
  109.0519   66.2620   38.4837 H   0  0  0  0  0  0  0  0  0  0  0  0
  109.5491   72.3416   34.5476 H   0  0  0  0  0  0  0  0  0  0  0  0
  113.2203   65.9325   39.4058 H   0  0  0  0  0  0  0  0  0  0  0  0
  112.4487   65.3448   37.1577 H   0  0  0  0  0  0  0  0  0  0  0  0
  109.7311   66.6409   36.5516 H   0  0  0  0  0  0  0  0  0  0  0  0
  108.0711   67.8910   40.9909 H   0  0  0  0  0  0  0  0  0  0  0  0
  107.5009   66.2740   40.4232 H   0  0  0  0  0  0  0  0  0  0  0  0
  107.9765   65.2577   42.5142 H   0  0  0  0  0  0  0  0  0  0  0  0
  107.1316   66.8297   42.8760 H   0  0  0  0  0  0  0  0  0  0  0  0
  110.1032   68.7516   34.7648 H   0  0  0  0  0  0  0  0  0  0  0  0
  108.6851   67.9112   34.5685 H   0  0  0  0  0  0  0  0  0  0  0  0
  110.1010   65.9981   32.0636 H   0  0  0  0  0  0  0  0  0  0  0  0
  111.6146   66.6796   32.0775 H   0  0  0  0  0  0  0  0  0  0  0  0
  109.0682   68.3582   31.9480 H   0  0  0  0  0  0  0  0  0  0  0  0
  111.1000   74.0758   36.4297 H   0  0  0  0  0  0  0  0  0  0  0  0
  111.4655   75.4549   35.3384 H   0  0  0  0  0  0  0  0  0  0  0  0
  109.8267   74.7195   35.3384 H   0  0  0  0  0  0  0  0  0  0  0  0
  111.7483   69.2803   32.6916 H   0  0  0  0  0  0  0  0  0  0  0  0
  110.8581   69.4057   31.1411 H   0  0  0  0  0  0  0  0  0  0  0  0
  111.2619   66.8772   43.4304 H   0  0  0  0  0  0  0  0  0  0  0  0
  1  2  2  0
  1  3  1  0
  2  9  1  0
  3 10  2  0
  4  7  2  0
  4  8  1  0
  5  9  2  0
  5 10  1  0
  6  7  1  0
  6 23  2  0
  7 13  1  0
  8 11  2  0
  8 16  1  0
  9 21  1  0
 10 28  1  0
 11 23  1  0
 11 24  1  0
 12 17  1  0
 12 24  1  0
 12 26  2  0
 13 14  2  0
 14 15  1  0
 15 25  1  0
 15 27  2  0
 16 17  1  0
 18 20  1  0
 18 25  1  0
 19 20  1  0
 19 25  1  0
 20 22  1  0
 22 28  1  0
  1 29  1  0
  2 30  1  0
  3 31  1  0
  4 32  1  0
  5 33  1  0
  6 34  1  0
 13 35  1  0
 14 36  1  0
 16 37  1  0
 16 38  1  0
 17 39  1  0
 17 40  1  0
 18 41  1  0
 18 42  1  0
 19 43  1  0
 19 44  1  0
 20 45  1  0
 21 46  1  0
 21 47  1  0
 21 48  1  0
 22 49  1  0
 22 50  1  0
 24 51  1  0
M  END
>  <Name>  (201) 
CHEMBL3322711

>  <Comment>  (201) 
 Schrodinger Suite 2021-4.

>  <s_m_entry_id>  (201) 
1308

>  <class_value>  (201) 
0

>  <s_m_Source_Path>  (201) 
C:\Users\vinicius\Desktop

>  <s_m_Source_File>  (201) 
Ligands_Saureus_o.sdf

>  <i_m_Source_File_Index>  (201) 
183

>  <r_lp_tautomer_probability>  (201) 
1

>  <r_epik_Ionization_Penalty>  (201) 
0.0002

>  <r_epik_State_Penalty>  (201) 
0

>  <i_epik_Tot_Q>  (201) 
0

>  <i_f3d_flags>  (201) 
0

>  <s_m_job_name>  (201) 
Saureus_o

>  <FRED Chemgauss4 score>  (201) 
-12.714136

>  <Set>  (201) 
training

>  <HBA count>  (201) 
4

>  <HBD count>  (201) 
1

>  <ExactMolWt>  (201) 
377.17394159600065

>  <NumRotatableBounds>  (201) 
6

>  <FractionCsp3>  (201) 
0.3181818181818182

>  <TPSA>  (201) 
71.53

>  <LogP_WildmanCrippen>  (201) 
2.8253200000000005

>  <General_Cluster>  (201) 
1

>  <Biological_Cluster>  (201) 
2

>  <Physicochemical_Cluster>  (201) 
1

>  <Structural_Cluster>  (201) 
2

$$$$
CHEMBL3676397
     RDKit          3D

 47 49  0  0  0  0  0  0  0  0999 V2000
  109.9088   67.1606   39.7298 C   0  0  0  0  0  0  0  0  0  0  0  0
  112.0449   66.2652   40.2560 C   0  0  0  0  0  0  0  0  0  0  0  0
  111.1133   66.6204   39.2966 C   0  0  0  0  0  0  0  0  0  0  0  0
  109.6810   67.3466   41.0941 C   0  0  0  0  0  0  0  0  0  0  0  0
  110.6840   66.9628   41.9836 C   0  0  0  0  0  0  0  0  0  0  0  0
  109.3948   67.7940   43.9155 C   0  0  0  0  0  0  0  0  0  0  0  0
  111.3961   66.4454   37.8613 C   0  0  0  0  0  0  0  0  0  0  0  0
  110.4687   66.4044   36.8931 C   0  0  0  0  0  0  0  0  0  0  0  0
  110.8011   66.2170   35.4666 C   0  0  0  0  0  0  0  0  0  0  0  0
  108.3617   67.8369   41.6092 C   0  0  0  0  0  0  0  0  0  0  0  0
  108.5358   68.5641   42.9331 C   0  0  0  0  0  0  0  0  0  0  0  0
  110.4237   69.6900   34.6627 C   0  0  0  0  0  0  0  0  0  0  0  0
  111.3344   68.4878   32.6528 C   0  0  0  0  0  0  0  0  0  0  0  0
  109.7255   68.4009   35.0849 C   0  0  0  0  0  0  0  0  0  0  0  0
  110.6344   67.2108   33.1193 C   0  0  0  0  0  0  0  0  0  0  0  0
  110.6019   69.7453   33.1396 C   0  0  0  0  0  0  0  0  0  0  0  0
  111.3539   71.0077   32.7253 C   0  0  0  0  0  0  0  0  0  0  0  0
  111.4975   71.1012   31.2172 C   0  0  0  0  0  0  0  0  0  0  0  0
  111.8569   66.4154   41.5862 N   0  0  0  0  0  0  0  0  0  0  0  0
  110.4665   67.1186   43.3659 N   0  0  0  0  0  0  0  0  0  0  0  0
  110.4278   67.2202   34.5751 N   0  0  0  0  0  0  0  0  0  0  0  0
  109.1914   67.8561   45.1280 O   0  0  0  0  0  0  0  0  0  0  0  0
  111.3937   65.1836   35.1515 O   0  0  0  0  0  0  0  0  0  0  0  0
  112.2177   72.2852   30.9040 O   0  0  0  0  0  0  0  0  0  0  0  0
  109.1361   67.4412   38.9988 H   0  0  0  0  0  0  0  0  0  0  0  0
  112.9976   65.8338   39.9151 H   0  0  0  0  0  0  0  0  0  0  0  0
  112.4489   66.3403   37.5605 H   0  0  0  0  0  0  0  0  0  0  0  0
  109.4112   66.5156   37.1749 H   0  0  0  0  0  0  0  0  0  0  0  0
  107.9212   68.5265   40.8741 H   0  0  0  0  0  0  0  0  0  0  0  0
  107.7008   66.9717   41.7663 H   0  0  0  0  0  0  0  0  0  0  0  0
  107.5436   68.7213   43.3813 H   0  0  0  0  0  0  0  0  0  0  0  0
  109.0437   69.5172   42.7241 H   0  0  0  0  0  0  0  0  0  0  0  0
  109.8179   70.5496   34.9855 H   0  0  0  0  0  0  0  0  0  0  0  0
  111.4175   69.7206   35.1332 H   0  0  0  0  0  0  0  0  0  0  0  0
  112.3606   68.4970   33.0487 H   0  0  0  0  0  0  0  0  0  0  0  0
  111.3368   68.4959   31.5528 H   0  0  0  0  0  0  0  0  0  0  0  0
  109.6962   68.3532   36.1835 H   0  0  0  0  0  0  0  0  0  0  0  0
  108.7081   68.4056   34.6668 H   0  0  0  0  0  0  0  0  0  0  0  0
  109.6580   67.1333   32.6187 H   0  0  0  0  0  0  0  0  0  0  0  0
  111.2706   66.3508   32.8629 H   0  0  0  0  0  0  0  0  0  0  0  0
  109.6080   69.7786   32.6693 H   0  0  0  0  0  0  0  0  0  0  0  0
  110.8014   71.8875   33.0868 H   0  0  0  0  0  0  0  0  0  0  0  0
  112.3611   70.9691   33.1657 H   0  0  0  0  0  0  0  0  0  0  0  0
  112.0449   70.2240   30.8418 H   0  0  0  0  0  0  0  0  0  0  0  0
  110.5041   71.1293   30.7457 H   0  0  0  0  0  0  0  0  0  0  0  0
  111.1528   66.7008   44.0104 H   0  0  0  0  0  0  0  0  0  0  0  0
  112.4919   72.7360   31.7417 H   0  0  0  0  0  0  0  0  0  0  0  0
  1  3  2  0
  1  4  1  0
  2  3  1  0
  2 19  2  0
  3  7  1  0
  4  5  2  0
  4 10  1  0
  5 19  1  0
  5 20  1  0
  6 11  1  0
  6 20  1  0
  6 22  2  0
  7  8  2  0
  8  9  1  0
  9 21  1  0
  9 23  2  0
 10 11  1  0
 12 14  1  0
 12 16  1  0
 13 15  1  0
 13 16  1  0
 14 21  1  0
 15 21  1  0
 16 17  1  0
 17 18  1  0
 18 24  1  0
  1 25  1  0
  2 26  1  0
  7 27  1  0
  8 28  1  0
 10 29  1  0
 10 30  1  0
 11 31  1  0
 11 32  1  0
 12 33  1  0
 12 34  1  0
 13 35  1  0
 13 36  1  0
 14 37  1  0
 14 38  1  0
 15 39  1  0
 15 40  1  0
 16 41  1  0
 17 42  1  0
 17 43  1  0
 18 44  1  0
 18 45  1  0
 20 46  1  0
 24 47  1  0
M  END
>  <Name>  (202) 
CHEMBL3676397

>  <Comment>  (202) 
 Schrodinger Suite 2021-4.

>  <s_m_entry_id>  (202) 
1250

>  <class_value>  (202) 
0

>  <s_m_Source_Path>  (202) 
C:\Users\vinicius\Desktop

>  <s_m_Source_File>  (202) 
Ligands_Saureus_o.sdf

>  <i_m_Source_File_Index>  (202) 
142

>  <r_lp_tautomer_probability>  (202) 
1

>  <r_epik_Ionization_Penalty>  (202) 
0.0002

>  <r_epik_State_Penalty>  (202) 
0

>  <i_epik_Tot_Q>  (202) 
0

>  <i_f3d_flags>  (202) 
0

>  <s_m_job_name>  (202) 
Saureus_o

>  <FRED Chemgauss4 score>  (202) 
-13.728515

>  <Set>  (202) 
training

>  <HBA count>  (202) 
4

>  <HBD count>  (202) 
2

>  <ExactMolWt>  (202) 
329.1739415960006

>  <NumRotatableBounds>  (202) 
5

>  <FractionCsp3>  (202) 
0.5

>  <TPSA>  (202) 
82.53

>  <LogP_WildmanCrippen>  (202) 
1.6004999999999996

>  <General_Cluster>  (202) 
5

>  <Biological_Cluster>  (202) 
2

>  <Physicochemical_Cluster>  (202) 
4

>  <Structural_Cluster>  (202) 
2

$$$$
CHEMBL3623395
     RDKit          3D

 41 43  0  0  0  0  0  0  0  0999 V2000
  106.2679   63.1211   44.6787 C   0  0  0  0  0  0  0  0  0  0  0  0
  107.6603   63.0576   44.7303 C   0  0  0  0  0  0  0  0  0  0  0  0
  105.6361   63.6864   43.5710 C   0  0  0  0  0  0  0  0  0  0  0  0
  110.5045   70.0739   36.0751 C   0  0  0  0  0  0  0  0  0  0  0  0
  109.8134   69.5702   34.9732 C   0  0  0  0  0  0  0  0  0  0  0  0
  108.4210   63.5595   43.6743 C   0  0  0  0  0  0  0  0  0  0  0  0
  106.3967   64.1882   42.5150 C   0  0  0  0  0  0  0  0  0  0  0  0
  111.3416   69.2386   36.8149 C   0  0  0  0  0  0  0  0  0  0  0  0
  110.7964   67.3957   35.3509 C   0  0  0  0  0  0  0  0  0  0  0  0
  109.9593   68.2310   34.6111 C   0  0  0  0  0  0  0  0  0  0  0  0
  107.7892   64.1248   42.5666 C   0  0  0  0  0  0  0  0  0  0  0  0
  111.4875   67.8995   36.4528 C   0  0  0  0  0  0  0  0  0  0  0  0
  111.1483   64.3119   39.4752 C   0  0  0  0  0  0  0  0  0  0  0  0
  111.1672   67.0753   39.2742 C   0  0  0  0  0  0  0  0  0  0  0  0
  111.7484   66.4321   38.2556 C   0  0  0  0  0  0  0  0  0  0  0  0
  110.6003   65.0835   40.4258 C   0  0  0  0  0  0  0  0  0  0  0  0
  111.7745   64.9519   38.2961 C   0  0  0  0  0  0  0  0  0  0  0  0
  110.9606   65.9561   34.9756 C   0  0  0  0  0  0  0  0  0  0  0  0
  109.9460   64.5245   41.6478 C   0  0  0  0  0  0  0  0  0  0  0  0
  109.2425   67.7403   33.4847 N   0  0  0  0  0  4  0  0  0  0  0  0
  109.7792   67.7981   32.3532 O   0  0  0  0  0  1  0  0  0  0  0  0
  112.2859   64.2852   37.4044 O   0  0  0  0  0  0  0  0  0  0  0  0
  108.0954   67.2650   33.6571 O   0  0  0  0  0  0  0  0  0  0  0  0
  110.5882   66.4688   40.3627 O   0  0  0  0  0  0  0  0  0  0  0  0
  112.3115   67.0958   37.1926 O   0  0  0  0  0  0  0  0  0  0  0  0
  108.5372   64.6202   41.5280 O   0  0  0  0  0  0  0  0  0  0  0  0
  105.6680   62.7254   45.5115 H   0  0  0  0  0  0  0  0  0  0  0  0
  108.1585   62.6117   45.6038 H   0  0  0  0  0  0  0  0  0  0  0  0
  104.5380   63.7364   43.5303 H   0  0  0  0  0  0  0  0  0  0  0  0
  110.3894   71.1299   36.3607 H   0  0  0  0  0  0  0  0  0  0  0  0
  109.1534   70.2290   34.3898 H   0  0  0  0  0  0  0  0  0  0  0  0
  109.5191   63.5095   43.7151 H   0  0  0  0  0  0  0  0  0  0  0  0
  105.8984   64.6339   41.6415 H   0  0  0  0  0  0  0  0  0  0  0  0
  111.8867   69.6359   37.6838 H   0  0  0  0  0  0  0  0  0  0  0  0
  111.1326   63.2162   39.5706 H   0  0  0  0  0  0  0  0  0  0  0  0
  111.1515   68.1746   39.2377 H   0  0  0  0  0  0  0  0  0  0  0  0
  111.0303   65.3451   35.8876 H   0  0  0  0  0  0  0  0  0  0  0  0
  110.0937   65.6308   34.3817 H   0  0  0  0  0  0  0  0  0  0  0  0
  111.8784   65.8344   34.3817 H   0  0  0  0  0  0  0  0  0  0  0  0
  110.2312   63.4684   41.7633 H   0  0  0  0  0  0  0  0  0  0  0  0
  110.2740   65.0970   42.5279 H   0  0  0  0  0  0  0  0  0  0  0  0
  1  2  2  0
  1  3  1  0
  2  6  1  0
  3  7  2  0
  4  5  2  0
  4  8  1  0
  5 10  1  0
  6 11  2  0
  7 11  1  0
  8 12  2  0
  9 10  2  0
  9 12  1  0
  9 18  1  0
 10 20  1  0
 11 26  1  0
 12 25  1  0
 13 16  2  0
 13 17  1  0
 14 15  2  0
 14 24  1  0
 15 17  1  0
 15 25  1  0
 16 19  1  0
 16 24  1  0
 17 22  2  0
 19 26  1  0
 20 21  1  0
 20 23  2  0
  1 27  1  0
  2 28  1  0
  3 29  1  0
  4 30  1  0
  5 31  1  0
  6 32  1  0
  7 33  1  0
  8 34  1  0
 13 35  1  0
 14 36  1  0
 18 37  1  0
 18 38  1  0
 18 39  1  0
 19 40  1  0
 19 41  1  0
M  CHG  2  20   1  21  -1
M  END
>  <Name>  (203) 
CHEMBL3623395

>  <Comment>  (203) 
 Schrodinger Suite 2021-4.

>  <s_m_entry_id>  (203) 
1240

>  <class_value>  (203) 
0

>  <s_m_Source_Path>  (203) 
C:\Users\vinicius\Desktop

>  <s_m_Source_File>  (203) 
Ligands_Saureus_o.sdf

>  <i_m_Source_File_Index>  (203) 
133

>  <r_lp_tautomer_probability>  (203) 
1

>  <r_epik_Ionization_Penalty>  (203) 
0

>  <r_epik_State_Penalty>  (203) 
0

>  <i_epik_Tot_Q>  (203) 
0

>  <i_f3d_flags>  (203) 
0

>  <s_m_job_name>  (203) 
Saureus_o

>  <FRED Chemgauss4 score>  (203) 
-11.726254

>  <Set>  (203) 
training

>  <HBA count>  (203) 
6

>  <HBD count>  (203) 
0

>  <ExactMolWt>  (203) 
353.0899372000003

>  <NumRotatableBounds>  (203) 
7

>  <FractionCsp3>  (203) 
0.10526315789473684

>  <TPSA>  (203) 
91.81

>  <LogP_WildmanCrippen>  (203) 
4.227720000000002

>  <General_Cluster>  (203) 
1

>  <Biological_Cluster>  (203) 
2

>  <Physicochemical_Cluster>  (203) 
1

>  <Structural_Cluster>  (203) 
5

$$$$
CHEMBL2178283
     RDKit          3D

 37 38  0  0  0  0  0  0  0  0999 V2000
  111.0043   70.6560   34.0316 C   0  0  0  0  0  0  0  0  0  0  0  0
  110.4120   69.5919   34.7117 C   0  0  0  0  0  0  0  0  0  0  0  0
  110.7496   69.4645   31.9453 C   0  0  0  0  0  0  0  0  0  0  0  0
  111.7160   65.0769   36.3303 C   0  0  0  0  0  0  0  0  0  0  0  0
  110.0914   67.2533   36.9679 C   0  0  0  0  0  0  0  0  0  0  0  0
  111.1731   70.5923   32.6484 C   0  0  0  0  0  0  0  0  0  0  0  0
  111.6507   65.5367   37.6455 C   0  0  0  0  0  0  0  0  0  0  0  0
  109.9886   68.4641   34.0086 C   0  0  0  0  0  0  0  0  0  0  0  0
  110.9691   65.7053   35.3338 C   0  0  0  0  0  0  0  0  0  0  0  0
  110.1568   66.7934   35.6526 C   0  0  0  0  0  0  0  0  0  0  0  0
  110.1574   68.4004   32.6254 C   0  0  0  0  0  0  0  0  0  0  0  0
  110.8383   66.6249   37.9644 C   0  0  0  0  0  0  0  0  0  0  0  0
  111.7910   71.7016   31.9391 C   0  0  0  0  0  0  0  0  0  0  0  0
  111.5777   64.3346   39.8447 C   0  0  0  0  0  0  0  0  0  0  0  0
  112.0435   65.8190   33.2152 C   0  0  0  0  0  0  0  0  0  0  0  0
  112.4502   64.8629   38.7089 C   0  0  0  0  0  0  0  0  0  0  0  0
  112.1963   72.8031   32.6872 N   0  0  0  0  0  0  0  0  0  0  0  0
  111.9393   71.6795   30.7047 O   0  0  0  0  0  0  0  0  0  0  0  0
  109.4106   67.4259   34.6724 O   0  0  0  0  0  0  0  0  0  0  0  0
  111.0408   65.2471   34.0529 O   0  0  0  0  0  0  0  0  0  0  0  0
  109.7523   67.3199   31.9437 F   0  0  0  0  0  0  0  0  0  0  0  0
  110.7689   67.0740   39.2254 F   0  0  0  0  0  0  0  0  0  0  0  0
  111.3383   71.5454   34.5860 H   0  0  0  0  0  0  0  0  0  0  0  0
  110.2788   69.6422   35.8025 H   0  0  0  0  0  0  0  0  0  0  0  0
  110.8826   69.4143   30.8545 H   0  0  0  0  0  0  0  0  0  0  0  0
  112.3565   64.2187   36.0789 H   0  0  0  0  0  0  0  0  0  0  0  0
  109.4508   68.1115   37.2193 H   0  0  0  0  0  0  0  0  0  0  0  0
  112.0282   64.6074   40.8104 H   0  0  0  0  0  0  0  0  0  0  0  0
  110.5729   64.7762   39.7710 H   0  0  0  0  0  0  0  0  0  0  0  0
  111.5033   63.2396   39.7710 H   0  0  0  0  0  0  0  0  0  0  0  0
  112.8304   66.2678   33.8392 H   0  0  0  0  0  0  0  0  0  0  0  0
  112.4817   65.0350   32.5802 H   0  0  0  0  0  0  0  0  0  0  0  0
  111.5917   66.5953   32.5802 H   0  0  0  0  0  0  0  0  0  0  0  0
  112.9954   64.0194   38.2603 H   0  0  0  0  0  0  0  0  0  0  0  0
  113.1396   65.6075   39.1334 H   0  0  0  0  0  0  0  0  0  0  0  0
  112.6379   73.6082   32.2206 H   0  0  0  0  0  0  0  0  0  0  0  0
  112.0547   72.8131   33.7074 H   0  0  0  0  0  0  0  0  0  0  0  0
  1  2  2  0
  1  6  1  0
  2  8  1  0
  3  6  2  0
  3 11  1  0
  4  7  2  0
  4  9  1  0
  5 10  1  0
  5 12  2  0
  6 13  1  0
  7 12  1  0
  7 16  1  0
  8 11  2  0
  8 19  1  0
  9 10  2  0
  9 20  1  0
 10 19  1  0
 11 21  1  0
 12 22  1  0
 13 17  1  0
 13 18  2  0
 14 16  1  0
 15 20  1  0
  1 23  1  0
  2 24  1  0
  3 25  1  0
  4 26  1  0
  5 27  1  0
 14 28  1  0
 14 29  1  0
 14 30  1  0
 15 31  1  0
 15 32  1  0
 15 33  1  0
 16 34  1  0
 16 35  1  0
 17 36  1  0
 17 37  1  0
M  END
>  <Name>  (204) 
CHEMBL2178283

>  <Comment>  (204) 
 Schrodinger Suite 2021-4.

>  <s_m_entry_id>  (204) 
1275

>  <class_value>  (204) 
0

>  <s_m_Source_Path>  (204) 
C:\Users\vinicius\Desktop

>  <s_m_Source_File>  (204) 
Ligands_Saureus_o.sdf

>  <i_m_Source_File_Index>  (204) 
162

>  <r_lp_tautomer_probability>  (204) 
1

>  <r_epik_Ionization_Penalty>  (204) 
0

>  <r_epik_State_Penalty>  (204) 
0

>  <i_epik_Tot_Q>  (204) 
0

>  <i_f3d_flags>  (204) 
0

>  <s_m_job_name>  (204) 
Saureus_o

>  <FRED Chemgauss4 score>  (204) 
-12.569507

>  <Set>  (204) 
training

>  <HBA count>  (204) 
3

>  <HBD count>  (204) 
1

>  <ExactMolWt>  (204) 
307.1019997800004

>  <NumRotatableBounds>  (204) 
7

>  <FractionCsp3>  (204) 
0.1875

>  <TPSA>  (204) 
61.55000000000001

>  <LogP_WildmanCrippen>  (204) 
3.4270000000000005

>  <General_Cluster>  (204) 
2

>  <Biological_Cluster>  (204) 
2

>  <Physicochemical_Cluster>  (204) 
1

>  <Structural_Cluster>  (204) 
3

$$$$
CHEMBL111556
     RDKit          3D

 52 54  0  0  0  0  0  0  0  0999 V2000
  107.6668   68.5869   43.2170 C   0  0  0  0  0  0  0  0  0  0  0  0
  107.5157   67.4333   43.9839 C   0  0  0  0  0  0  0  0  0  0  0  0
  111.6077   65.6566   33.8387 C   0  0  0  0  0  0  0  0  0  0  0  0
  108.3765   68.5575   42.0110 C   0  0  0  0  0  0  0  0  0  0  0  0
  111.8430   65.3902   35.1875 C   0  0  0  0  0  0  0  0  0  0  0  0
  110.8357   66.7582   33.4697 C   0  0  0  0  0  0  0  0  0  0  0  0
  108.0671   66.2166   43.5720 C   0  0  0  0  0  0  0  0  0  0  0  0
  109.7032   66.9547   40.4377 C   0  0  0  0  0  0  0  0  0  0  0  0
  110.5343   67.3270   35.7984 C   0  0  0  0  0  0  0  0  0  0  0  0
  108.9414   67.3423   41.5754 C   0  0  0  0  0  0  0  0  0  0  0  0
  111.3063   66.2253   36.1674 C   0  0  0  0  0  0  0  0  0  0  0  0
  110.2990   67.5934   34.4496 C   0  0  0  0  0  0  0  0  0  0  0  0
  108.7740   66.2023   42.3644 C   0  0  0  0  0  0  0  0  0  0  0  0
  109.9786   65.6119   40.5559 C   0  0  0  0  0  0  0  0  0  0  0  0
  111.5553   65.9443   37.5902 C   0  0  0  0  0  0  0  0  0  0  0  0
  110.5423   70.0040   32.1734 C   0  0  0  0  0  0  0  0  0  0  0  0
  111.3954   71.1873   31.7905 C   0  0  0  0  0  0  0  0  0  0  0  0
  109.4789   63.8037   42.2072 C   0  0  0  0  0  0  0  0  0  0  0  0
  109.4956   64.5927   37.5209 C   0  0  0  0  0  0  0  0  0  0  0  0
  110.7934   70.7955   34.5447 C   0  0  0  0  0  0  0  0  0  0  0  0
  109.4734   68.7714   34.0551 C   0  0  0  0  0  0  0  0  0  0  0  0
  110.7342   64.7185   39.6536 C   0  0  0  0  0  0  0  0  0  0  0  0
  109.4139   65.1669   41.7210 N   0  0  0  0  0  0  0  0  0  0  0  0
  110.6418   65.1135   38.2655 N   0  0  0  0  0  0  0  0  0  0  0  0
  110.2743   69.8558   33.5465 N   0  0  0  0  0  0  0  0  0  0  0  0
  112.5622   66.4562   38.0781 O   0  0  0  0  0  0  0  0  0  0  0  0
  110.1331   69.2460   31.2899 O   0  0  0  0  0  0  0  0  0  0  0  0
  107.2230   69.5319   43.5635 H   0  0  0  0  0  0  0  0  0  0  0  0
  106.9537   67.4808   44.9283 H   0  0  0  0  0  0  0  0  0  0  0  0
  112.0309   64.9980   33.0660 H   0  0  0  0  0  0  0  0  0  0  0  0
  108.4919   69.4719   41.4105 H   0  0  0  0  0  0  0  0  0  0  0  0
  112.4518   64.5215   35.4784 H   0  0  0  0  0  0  0  0  0  0  0  0
  110.6501   66.9683   32.4060 H   0  0  0  0  0  0  0  0  0  0  0  0
  107.9497   65.3041   44.1749 H   0  0  0  0  0  0  0  0  0  0  0  0
  110.0158   67.6108   39.6120 H   0  0  0  0  0  0  0  0  0  0  0  0
  110.1111   67.9857   36.5711 H   0  0  0  0  0  0  0  0  0  0  0  0
  111.7568   71.6886   32.7005 H   0  0  0  0  0  0  0  0  0  0  0  0
  112.2544   70.8429   31.1959 H   0  0  0  0  0  0  0  0  0  0  0  0
  110.7973   71.8934   31.1959 H   0  0  0  0  0  0  0  0  0  0  0  0
  109.4788   63.8063   43.3072 H   0  0  0  0  0  0  0  0  0  0  0  0
  108.6065   63.2421   41.8418 H   0  0  0  0  0  0  0  0  0  0  0  0
  110.4008   63.3276   41.8418 H   0  0  0  0  0  0  0  0  0  0  0  0
  108.7276   64.2438   38.2269 H   0  0  0  0  0  0  0  0  0  0  0  0
  109.0771   65.3890   36.8879 H   0  0  0  0  0  0  0  0  0  0  0  0
  109.8201   63.7536   36.8879 H   0  0  0  0  0  0  0  0  0  0  0  0
  110.5818   70.4124   35.5539 H   0  0  0  0  0  0  0  0  0  0  0  0
  111.8801   70.9053   34.4146 H   0  0  0  0  0  0  0  0  0  0  0  0
  110.3078   71.7739   34.4146 H   0  0  0  0  0  0  0  0  0  0  0  0
  108.7633   68.4601   33.2748 H   0  0  0  0  0  0  0  0  0  0  0  0
  108.9511   69.1319   34.9536 H   0  0  0  0  0  0  0  0  0  0  0  0
  111.7927   64.7309   39.9526 H   0  0  0  0  0  0  0  0  0  0  0  0
  110.2965   63.7131   39.7411 H   0  0  0  0  0  0  0  0  0  0  0  0
  1  2  2  0
  1  4  1  0
  2  7  1  0
  3  5  2  0
  3  6  1  0
  4 10  2  0
  5 11  1  0
  6 12  2  0
  7 13  2  0
  8 10  1  0
  8 14  2  0
  9 11  2  0
  9 12  1  0
 10 13  1  0
 11 15  1  0
 12 21  1  0
 13 23  1  0
 14 22  1  0
 14 23  1  0
 15 24  1  0
 15 26  2  0
 16 17  1  0
 16 25  1  0
 16 27  2  0
 18 23  1  0
 19 24  1  0
 20 25  1  0
 21 25  1  0
 22 24  1  0
  1 28  1  0
  2 29  1  0
  3 30  1  0
  4 31  1  0
  5 32  1  0
  6 33  1  0
  7 34  1  0
  8 35  1  0
  9 36  1  0
 17 37  1  0
 17 38  1  0
 17 39  1  0
 18 40  1  0
 18 41  1  0
 18 42  1  0
 19 43  1  0
 19 44  1  0
 19 45  1  0
 20 46  1  0
 20 47  1  0
 20 48  1  0
 21 49  1  0
 21 50  1  0
 22 51  1  0
 22 52  1  0
M  END
>  <Name>  (205) 
CHEMBL111556

>  <Comment>  (205) 
 Schrodinger Suite 2021-4.

>  <s_m_entry_id>  (205) 
1283

>  <class_value>  (205) 
0

>  <s_m_Source_Path>  (205) 
C:\Users\vinicius\Desktop

>  <s_m_Source_File>  (205) 
Ligands_Saureus_o.sdf

>  <i_m_Source_File_Index>  (205) 
167

>  <r_lp_tautomer_probability>  (205) 
1

>  <r_epik_Ionization_Penalty>  (205) 
0

>  <r_epik_State_Penalty>  (205) 
0

>  <i_epik_Tot_Q>  (205) 
0

>  <i_f3d_flags>  (205) 
0

>  <s_m_job_name>  (205) 
Saureus_o

>  <FRED Chemgauss4 score>  (205) 
-10.895680

>  <Set>  (205) 
training

>  <HBA count>  (205) 
3

>  <HBD count>  (205) 
0

>  <ExactMolWt>  (205) 
363.1946770400007

>  <NumRotatableBounds>  (205) 
9

>  <FractionCsp3>  (205) 
0.2727272727272727

>  <TPSA>  (205) 
45.55

>  <LogP_WildmanCrippen>  (205) 
3.4288000000000025

>  <General_Cluster>  (205) 
3

>  <Biological_Cluster>  (205) 
2

>  <Physicochemical_Cluster>  (205) 
1

>  <Structural_Cluster>  (205) 
4

$$$$
CHEMBL3676404
     RDKit          3D

 43 46  0  0  1  0  0  0  0  0999 V2000
  110.0024   67.0164   39.8940 C   0  0  0  0  0  0  0  0  0  0  0  0
  112.0655   65.9530   40.3989 C   0  0  0  0  0  0  0  0  0  0  0  0
  111.0924   66.2680   39.4670 C   0  0  0  0  0  0  0  0  0  0  0  0
  109.9080   67.4070   41.2305 C   0  0  0  0  0  0  0  0  0  0  0  0
  110.9367   67.0353   42.0954 C   0  0  0  0  0  0  0  0  0  0  0  0
  110.6382   69.4193   32.3743 C   0  0  0  0  0  0  0  0  0  0  0  0
  111.5369   71.2652   32.1203 C   0  0  0  0  0  0  0  0  0  0  0  0
  109.7754   68.0338   44.0292 C   0  0  0  0  0  0  0  0  0  0  0  0
  111.2142   65.8428   38.0845 C   0  0  0  0  0  0  0  0  0  0  0  0
  110.5671   66.4032   37.0368 C   0  0  0  0  0  0  0  0  0  0  0  0
  110.7693   65.8980   35.6491 C   0  0  0  0  0  0  0  0  0  0  0  0
  108.8001   68.2940   41.7119 C   0  0  0  0  0  0  0  0  0  0  0  0
  108.5166   68.0518   43.1860 C   0  0  0  0  0  0  0  0  0  0  0  0
  109.8432   68.1459   34.6250 C   0  0  0  0  0  0  0  0  0  0  0  0
  110.7096   66.8414   33.1908 C   0  0  0  0  0  0  0  0  0  0  0  0
  109.9335   68.1843   33.0725 C   0  0  2  0  0  0  0  0  0  0  0  0
  109.9867   66.6062   34.5399 C   0  0  1  0  0  0  0  0  0  0  0  0
  112.1352   72.6046   32.2012 C   0  0  0  0  0  0  0  0  0  0  0  0
  112.0182   66.3241   41.6979 N   0  0  0  0  0  0  0  0  0  0  0  0
  111.0143   70.5313   33.0700 N   0  0  0  0  0  0  0  0  0  0  0  0
  110.9020   69.4367   31.0644 N   0  0  0  0  0  0  0  0  0  0  0  0
  110.8751   67.4391   43.4429 N   0  0  0  0  0  0  0  0  0  0  0  0
  109.7724   68.4403   45.1910 O   0  0  0  0  0  0  0  0  0  0  0  0
  111.5406   64.9765   35.3925 O   0  0  0  0  0  0  0  0  0  0  0  0
  111.5105   70.6862   30.8913 O   0  0  0  0  0  0  0  0  0  0  0  0
  109.2153   67.3005   39.1800 H   0  0  0  0  0  0  0  0  0  0  0  0
  112.9313   65.3641   40.0618 H   0  0  0  0  0  0  0  0  0  0  0  0
  111.8858   64.9980   37.8718 H   0  0  0  0  0  0  0  0  0  0  0  0
  109.8809   67.2449   37.2118 H   0  0  0  0  0  0  0  0  0  0  0  0
  109.0914   69.3450   41.5686 H   0  0  0  0  0  0  0  0  0  0  0  0
  107.8909   68.0668   41.1359 H   0  0  0  0  0  0  0  0  0  0  0  0
  108.0085   67.0819   43.2918 H   0  0  0  0  0  0  0  0  0  0  0  0
  107.8892   68.8814   43.5440 H   0  0  0  0  0  0  0  0  0  0  0  0
  110.6696   68.6540   35.1436 H   0  0  0  0  0  0  0  0  0  0  0  0
  109.0075   68.6162   35.1638 H   0  0  0  0  0  0  0  0  0  0  0  0
  110.4702   66.1049   32.4096 H   0  0  0  0  0  0  0  0  0  0  0  0
  111.8061   66.8026   33.1121 H   0  0  0  0  0  0  0  0  0  0  0  0
  109.0431   68.2932   32.4359 H   0  0  0  0  0  0  0  0  0  0  0  0
  109.1189   65.9362   34.6299 H   0  0  0  0  0  0  0  0  0  0  0  0
  112.2612   72.8867   33.2569 H   0  0  0  0  0  0  0  0  0  0  0  0
  113.1162   72.5986   31.7036 H   0  0  0  0  0  0  0  0  0  0  0  0
  111.4761   73.3313   31.7036 H   0  0  0  0  0  0  0  0  0  0  0  0
  111.7059   67.2803   44.0306 H   0  0  0  0  0  0  0  0  0  0  0  0
  1  3  2  0
  1  4  1  0
  2  3  1  0
  2 19  2  0
  3  9  1  0
  4  5  2  0
  4 12  1  0
  5 19  1  0
  5 22  1  0
  6 16  1  0
  6 20  1  0
  6 21  2  0
  7 18  1  0
  7 20  2  0
  7 25  1  0
  8 13  1  0
  8 22  1  0
  8 23  2  0
  9 10  2  0
 10 11  1  0
 11 17  1  0
 11 24  2  0
 12 13  1  0
 14 16  1  0
 14 17  1  0
 15 16  1  0
 15 17  1  0
 21 25  1  0
  1 26  1  0
  2 27  1  0
  9 28  1  0
 10 29  1  0
 12 30  1  0
 12 31  1  0
 13 32  1  0
 13 33  1  0
 14 34  1  0
 14 35  1  0
 15 36  1  0
 15 37  1  0
 16 38  1  6
 17 39  1  6
 18 40  1  0
 18 41  1  0
 18 42  1  0
 22 43  1  0
M  END
>  <Name>  (206) 
CHEMBL3676404

>  <Comment>  (206) 
 Schrodinger Suite 2021-4.

>  <s_m_entry_id>  (206) 
1127

>  <class_value>  (206) 
1

>  <s_m_Source_Path>  (206) 
C:\Users\vinicius\Desktop

>  <s_m_Source_File>  (206) 
Ligands_Saureus_o.sdf

>  <i_m_Source_File_Index>  (206) 
43

>  <r_lp_tautomer_probability>  (206) 
1

>  <r_epik_Ionization_Penalty>  (206) 
0.0002

>  <r_epik_State_Penalty>  (206) 
0

>  <i_epik_Tot_Q>  (206) 
0

>  <i_f3d_flags>  (206) 
0

>  <s_m_job_name>  (206) 
Saureus_o

>  <FRED Chemgauss4 score>  (206) 
-13.315626

>  <Set>  (206) 
training

>  <HBA count>  (206) 
6

>  <HBD count>  (206) 
1

>  <ExactMolWt>  (206) 
338.1378904360005

>  <NumRotatableBounds>  (206) 
5

>  <FractionCsp3>  (206) 
0.3888888888888889

>  <TPSA>  (206) 
97.98

>  <LogP_WildmanCrippen>  (206) 
2.43382

>  <General_Cluster>  (206) 
1

>  <Biological_Cluster>  (206) 
1

>  <Physicochemical_Cluster>  (206) 
4

>  <Structural_Cluster>  (206) 
2

$$$$
CHEMBL297053
     RDKit          3D

 44 46  0  0  0  0  0  0  0  0999 V2000
  111.9337   72.7964   34.4634 C   0  0  0  0  0  0  0  0  0  0  0  0
  111.5358   72.7578   33.1284 C   0  0  0  0  0  0  0  0  0  0  0  0
  111.7817   71.6764   35.2888 C   0  0  0  0  0  0  0  0  0  0  0  0
  110.2407   67.1685   39.3505 C   0  0  0  0  0  0  0  0  0  0  0  0
  110.9750   71.6024   32.5766 C   0  0  0  0  0  0  0  0  0  0  0  0
  109.8589   67.5282   40.6382 C   0  0  0  0  0  0  0  0  0  0  0  0
  110.9233   69.2132   35.2849 C   0  0  0  0  0  0  0  0  0  0  0  0
  112.1367   66.0703   40.2753 C   0  0  0  0  0  0  0  0  0  0  0  0
  111.2186   70.5003   34.7548 C   0  0  0  0  0  0  0  0  0  0  0  0
  111.4000   66.4257   39.1570 C   0  0  0  0  0  0  0  0  0  0  0  0
  110.8291   70.4905   33.4137 C   0  0  0  0  0  0  0  0  0  0  0  0
  110.3702   68.4610   34.2743 C   0  0  0  0  0  0  0  0  0  0  0  0
  110.6645   67.1233   41.6902 C   0  0  0  0  0  0  0  0  0  0  0  0
  111.8314   66.0288   37.8051 C   0  0  0  0  0  0  0  0  0  0  0  0
  111.0277   65.9833   36.7321 C   0  0  0  0  0  0  0  0  0  0  0  0
  111.5778   65.5321   35.4199 C   0  0  0  0  0  0  0  0  0  0  0  0
  109.7999   68.8108   31.8664 C   0  0  0  0  0  0  0  0  0  0  0  0
  111.4439   65.6690   32.9623 C   0  0  0  0  0  0  0  0  0  0  0  0
  109.8799   67.0420   34.2906 C   0  0  0  0  0  0  0  0  0  0  0  0
  111.7976   66.4011   41.5415 N   0  0  0  0  0  0  0  0  0  0  0  0
  110.3177   69.2399   33.1496 N   0  0  0  0  0  0  0  0  0  0  0  0
  110.2621   67.4974   42.9964 N   0  0  0  0  0  0  0  0  0  0  0  0
  110.9823   66.0822   34.2813 N   0  0  0  0  0  0  0  0  0  0  0  0
  112.4877   64.7022   35.3908 O   0  0  0  0  0  0  0  0  0  0  0  0
  112.3724   73.7181   34.8733 H   0  0  0  0  0  0  0  0  0  0  0  0
  111.6651   73.6506   32.4990 H   0  0  0  0  0  0  0  0  0  0  0  0
  112.0980   71.7138   36.3417 H   0  0  0  0  0  0  0  0  0  0  0  0
  109.6280   67.4704   38.4883 H   0  0  0  0  0  0  0  0  0  0  0  0
  110.6600   71.5684   31.5232 H   0  0  0  0  0  0  0  0  0  0  0  0
  108.9461   68.1157   40.8161 H   0  0  0  0  0  0  0  0  0  0  0  0
  111.1047   68.8795   36.3173 H   0  0  0  0  0  0  0  0  0  0  0  0
  113.0541   65.4827   40.1235 H   0  0  0  0  0  0  0  0  0  0  0  0
  112.8864   65.7503   37.6661 H   0  0  0  0  0  0  0  0  0  0  0  0
  109.9710   66.2763   36.8186 H   0  0  0  0  0  0  0  0  0  0  0  0
  108.9616   68.1161   32.0230 H   0  0  0  0  0  0  0  0  0  0  0  0
  109.4494   69.6868   31.3009 H   0  0  0  0  0  0  0  0  0  0  0  0
  110.5956   68.3037   31.3009 H   0  0  0  0  0  0  0  0  0  0  0  0
  112.2595   64.9390   33.0713 H   0  0  0  0  0  0  0  0  0  0  0  0
  110.6113   65.2089   32.4100 H   0  0  0  0  0  0  0  0  0  0  0  0
  111.8094   66.5473   32.4100 H   0  0  0  0  0  0  0  0  0  0  0  0
  109.2791   66.8841   35.1984 H   0  0  0  0  0  0  0  0  0  0  0  0
  109.2797   66.8792   33.3833 H   0  0  0  0  0  0  0  0  0  0  0  0
  110.8295   67.2190   43.8097 H   0  0  0  0  0  0  0  0  0  0  0  0
  109.4022   68.0477   43.1326 H   0  0  0  0  0  0  0  0  0  0  0  0
  1  2  2  0
  1  3  1  0
  2  5  1  0
  3  9  2  0
  4  6  2  0
  4 10  1  0
  5 11  2  0
  6 13  1  0
  7  9  1  0
  7 12  2  0
  8 10  2  0
  8 20  1  0
  9 11  1  0
 10 14  1  0
 11 21  1  0
 12 19  1  0
 12 21  1  0
 13 20  2  0
 13 22  1  0
 14 15  2  0
 15 16  1  0
 16 23  1  0
 16 24  2  0
 17 21  1  0
 18 23  1  0
 19 23  1  0
  1 25  1  0
  2 26  1  0
  3 27  1  0
  4 28  1  0
  5 29  1  0
  6 30  1  0
  7 31  1  0
  8 32  1  0
 14 33  1  0
 15 34  1  0
 17 35  1  0
 17 36  1  0
 17 37  1  0
 18 38  1  0
 18 39  1  0
 18 40  1  0
 19 41  1  0
 19 42  1  0
 22 43  1  0
 22 44  1  0
M  END
>  <Name>  (207) 
CHEMBL297053

>  <Comment>  (207) 
 Schrodinger Suite 2021-4.

>  <s_m_entry_id>  (207) 
1225

>  <class_value>  (207) 
0

>  <s_m_Source_Path>  (207) 
C:\Users\vinicius\Desktop

>  <s_m_Source_File>  (207) 
Ligands_Saureus_o.sdf

>  <i_m_Source_File_Index>  (207) 
120

>  <r_epik_Ionization_Penalty>  (207) 
0.0216

>  <r_epik_State_Penalty>  (207) 
0.0173

>  <i_epik_Tot_Q>  (207) 
0

>  <i_f3d_flags>  (207) 
0

>  <s_m_job_name>  (207) 
Saureus_o

>  <FRED Chemgauss4 score>  (207) 
-16.355268

>  <Set>  (207) 
training

>  <HBA count>  (207) 
4

>  <HBD count>  (207) 
1

>  <ExactMolWt>  (207) 
320.1637112600006

>  <NumRotatableBounds>  (207) 
7

>  <FractionCsp3>  (207) 
0.15789473684210525

>  <TPSA>  (207) 
64.15

>  <LogP_WildmanCrippen>  (207) 
2.8273

>  <General_Cluster>  (207) 
2

>  <Biological_Cluster>  (207) 
2

>  <Physicochemical_Cluster>  (207) 
1

>  <Structural_Cluster>  (207) 
3

$$$$
CHEMBL4205638
     RDKit          3D

 42 45  0  0  1  0  0  0  0  0999 V2000
  112.1524   65.8477   40.3629 C   0  0  0  0  0  0  0  0  0  0  0  0
  111.4457   69.2361   34.6448 C   0  0  0  0  0  0  0  0  0  0  0  0
  111.9114   70.4724   35.0988 C   0  0  0  0  0  0  0  0  0  0  0  0
  111.8074   64.5196   40.1125 C   0  0  0  0  0  0  0  0  0  0  0  0
  111.8467   66.8361   39.4273 C   0  0  0  0  0  0  0  0  0  0  0  0
  110.4112   70.2886   32.7083 C   0  0  0  0  0  0  0  0  0  0  0  0
  110.7000   69.1447   33.4563 C   0  0  0  0  0  0  0  0  0  0  0  0
  110.8511   65.1682   37.9907 C   0  0  0  0  0  0  0  0  0  0  0  0
  111.6125   71.5865   34.3417 C   0  0  0  0  0  0  0  0  0  0  0  0
  110.8826   71.4971   33.1784 C   0  0  0  0  0  0  0  0  0  0  0  0
  111.1568   64.1798   38.9264 C   0  0  0  0  0  0  0  0  0  0  0  0
  111.1961   66.4963   38.2412 C   0  0  0  0  0  0  0  0  0  0  0  0
  110.9558   65.1805   35.4976 C   0  0  0  0  0  0  0  0  0  0  0  0
  108.8018   67.4756   33.5306 C   0  0  0  0  0  0  0  0  0  0  0  0
  109.0628   66.7354   34.8361 C   0  0  0  0  0  0  0  0  0  0  0  0
  111.0169   66.5730   33.4391 C   0  0  0  0  0  0  0  0  0  0  0  0
  111.3988   73.5722   33.5090 C   0  0  0  0  0  0  0  0  0  0  0  0
  110.2038   67.7901   32.9836 C   0  0  2  0  0  0  0  0  0  0  0  0
  110.1512   64.8030   36.7155 C   0  0  0  0  0  0  0  0  0  0  0  0
  110.3641   66.1042   34.6543 N   0  0  0  0  0  0  0  0  0  0  0  0
  112.0614   64.6744   35.2990 O   0  0  0  0  0  0  0  0  0  0  0  0
  111.9799   72.8659   34.6243 O   0  0  0  0  0  0  0  0  0  0  0  0
  110.7014   72.7094   32.5873 O   0  0  0  0  0  0  0  0  0  0  0  0
  110.8296   62.9010   38.6946 F   0  0  0  0  0  0  0  0  0  0  0  0
  110.9068   67.4529   37.3481 F   0  0  0  0  0  0  0  0  0  0  0  0
  112.6656   66.1156   41.2982 H   0  0  0  0  0  0  0  0  0  0  0  0
  111.6644   68.3258   35.2224 H   0  0  0  0  0  0  0  0  0  0  0  0
  112.4958   70.5548   36.0271 H   0  0  0  0  0  0  0  0  0  0  0  0
  112.0484   63.7402   40.8504 H   0  0  0  0  0  0  0  0  0  0  0  0
  112.1187   67.8835   39.6249 H   0  0  0  0  0  0  0  0  0  0  0  0
  109.8285   70.2280   31.7773 H   0  0  0  0  0  0  0  0  0  0  0  0
  108.2431   66.8402   32.8277 H   0  0  0  0  0  0  0  0  0  0  0  0
  108.1951   68.3816   33.6759 H   0  0  0  0  0  0  0  0  0  0  0  0
  109.0883   67.4386   35.6816 H   0  0  0  0  0  0  0  0  0  0  0  0
  108.2743   66.0023   35.0618 H   0  0  0  0  0  0  0  0  0  0  0  0
  111.0018   65.7894   32.6673 H   0  0  0  0  0  0  0  0  0  0  0  0
  112.0724   66.8285   33.6143 H   0  0  0  0  0  0  0  0  0  0  0  0
  110.6869   74.3147   33.8988 H   0  0  0  0  0  0  0  0  0  0  0  0
  112.2251   74.0409   32.9544 H   0  0  0  0  0  0  0  0  0  0  0  0
  110.2656   67.9103   31.8919 H   0  0  0  0  0  0  0  0  0  0  0  0
  109.9793   63.7166   36.7040 H   0  0  0  0  0  0  0  0  0  0  0  0
  109.2022   65.3581   36.6795 H   0  0  0  0  0  0  0  0  0  0  0  0
  1  4  2  0
  1  5  1  0
  2  3  2  0
  2  7  1  0
  3  9  1  0
  4 11  1  0
  5 12  2  0
  6  7  2  0
  6 10  1  0
  7 18  1  0
  8 11  2  0
  8 12  1  0
  8 19  1  0
  9 10  2  0
  9 22  1  0
 10 23  1  0
 11 24  1  0
 12 25  1  0
 13 19  1  0
 13 20  1  0
 13 21  2  0
 14 15  1  0
 14 18  1  0
 15 20  1  0
 16 18  1  0
 16 20  1  0
 17 22  1  0
 17 23  1  0
  1 26  1  0
  2 27  1  0
  3 28  1  0
  4 29  1  0
  5 30  1  0
  6 31  1  0
 14 32  1  0
 14 33  1  0
 15 34  1  0
 15 35  1  0
 16 36  1  0
 16 37  1  0
 17 38  1  0
 17 39  1  0
 18 40  1  6
 19 41  1  0
 19 42  1  0
M  END
>  <Name>  (208) 
CHEMBL4205638

>  <Comment>  (208) 
 Schrodinger Suite 2021-4.

>  <s_m_entry_id>  (208) 
1448

>  <s_m_Source_Path>  (208) 
C:\Users\vinicius\Desktop

>  <s_m_Source_File>  (208) 
Ligands_Saureus_failomega.smi

>  <i_m_Source_File_Index>  (208) 
13

>  <r_lp_tautomer_probability>  (208) 
1

>  <r_epik_Ionization_Penalty>  (208) 
0

>  <r_epik_State_Penalty>  (208) 
0

>  <i_epik_Tot_Q>  (208) 
0

>  <i_f3d_flags>  (208) 
0

>  <s_m_job_name>  (208) 
Saureus_fail

>  <class_value>  (208) 
0

>  <FRED Chemgauss4 score>  (208) 
-13.615436

>  <Set>  (208) 
training

>  <HBA count>  (208) 
3

>  <HBD count>  (208) 
0

>  <ExactMolWt>  (208) 
345.1176498440004

>  <NumRotatableBounds>  (208) 
3

>  <FractionCsp3>  (208) 
0.3157894736842105

>  <TPSA>  (208) 
38.77

>  <LogP_WildmanCrippen>  (208) 
3.252100000000002

>  <General_Cluster>  (208) 
2

>  <Biological_Cluster>  (208) 
2

>  <Physicochemical_Cluster>  (208) 
3

>  <Structural_Cluster>  (208) 
3

$$$$
CHEMBL3623414
     RDKit          3D

 33 35  0  0  0  0  0  0  0  0999 V2000
  109.0750   68.7787   34.2882 C   0  0  0  0  0  0  0  0  0  0  0  0
  109.7175   69.7636   35.0384 C   0  0  0  0  0  0  0  0  0  0  0  0
  109.3799   67.4336   34.4964 C   0  0  0  0  0  0  0  0  0  0  0  0
  108.7975   63.0302   43.7835 C   0  0  0  0  0  0  0  0  0  0  0  0
  107.9669   62.8280   44.8611 C   0  0  0  0  0  0  0  0  0  0  0  0
  107.4726   64.8007   44.0777 C   0  0  0  0  0  0  0  0  0  0  0  0
  108.4766   64.3114   43.2749 C   0  0  0  0  0  0  0  0  0  0  0  0
  110.9699   68.0583   36.2048 C   0  0  0  0  0  0  0  0  0  0  0  0
  110.6649   69.4035   35.9967 C   0  0  0  0  0  0  0  0  0  0  0  0
  110.3273   67.0734   35.4547 C   0  0  0  0  0  0  0  0  0  0  0  0
  111.5937   64.7474   39.4898 C   0  0  0  0  0  0  0  0  0  0  0  0
  110.4952   67.2538   39.0085 C   0  0  0  0  0  0  0  0  0  0  0  0
  111.4737   66.8931   38.1695 C   0  0  0  0  0  0  0  0  0  0  0  0
  110.6082   65.2502   40.2400 C   0  0  0  0  0  0  0  0  0  0  0  0
  112.1067   65.5663   38.3665 C   0  0  0  0  0  0  0  0  0  0  0  0
  109.0722   65.0124   42.1240 C   0  0  0  0  0  0  0  0  0  0  0  0
  110.0508   64.5238   41.3493 C   0  0  0  0  0  0  0  0  0  0  0  0
  113.0083   65.1618   37.6420 O   0  0  0  0  0  0  0  0  0  0  0  0
  107.1561   63.9025   45.0471 O   0  0  0  0  0  0  0  0  0  0  0  0
  110.0261   66.4851   40.0474 O   0  0  0  0  0  0  0  0  0  0  0  0
  111.8985   67.7047   37.1453 O   0  0  0  0  0  0  0  0  0  0  0  0
  111.4419   70.6465   36.9072 Cl  0  0  0  0  0  0  0  0  0  0  0  0
  110.6839   65.4009   35.6871 Cl  0  0  0  0  0  0  0  0  0  0  0  0
  108.3279   69.0627   33.5324 H   0  0  0  0  0  0  0  0  0  0  0  0
  109.4770   70.8244   34.8743 H   0  0  0  0  0  0  0  0  0  0  0  0
  108.8732   66.6569   33.9048 H   0  0  0  0  0  0  0  0  0  0  0  0
  109.5576   62.3363   43.3954 H   0  0  0  0  0  0  0  0  0  0  0  0
  107.9600   61.9224   45.4855 H   0  0  0  0  0  0  0  0  0  0  0  0
  106.9926   65.7825   43.9524 H   0  0  0  0  0  0  0  0  0  0  0  0
  112.0126   63.7524   39.7007 H   0  0  0  0  0  0  0  0  0  0  0  0
  110.0314   68.2394   38.8553 H   0  0  0  0  0  0  0  0  0  0  0  0
  108.6842   66.0129   41.8821 H   0  0  0  0  0  0  0  0  0  0  0  0
  110.4457   63.5216   41.5720 H   0  0  0  0  0  0  0  0  0  0  0  0
  1  2  2  0
  1  3  1  0
  2  9  1  0
  3 10  2  0
  4  5  2  0
  4  7  1  0
  5 19  1  0
  6  7  2  0
  6 19  1  0
  7 16  1  0
  8  9  2  0
  8 10  1  0
  8 21  1  0
  9 22  1  0
 10 23  1  0
 11 14  2  0
 11 15  1  0
 12 13  2  0
 12 20  1  0
 13 15  1  0
 13 21  1  0
 14 17  1  0
 14 20  1  0
 15 18  2  0
 16 17  2  0
  1 24  1  0
  2 25  1  0
  3 26  1  0
  4 27  1  0
  5 28  1  0
  6 29  1  0
 11 30  1  0
 12 31  1  0
 16 32  1  0
 17 33  1  0
M  END
>  <Name>  (209) 
CHEMBL3623414

>  <Comment>  (209) 
 Schrodinger Suite 2021-4.

>  <s_m_entry_id>  (209) 
1242

>  <class_value>  (209) 
0

>  <s_m_Source_Path>  (209) 
C:\Users\vinicius\Desktop

>  <s_m_Source_File>  (209) 
Ligands_Saureus_o.sdf

>  <i_m_Source_File_Index>  (209) 
135

>  <r_lp_tautomer_probability>  (209) 
1

>  <r_epik_Ionization_Penalty>  (209) 
0

>  <r_epik_State_Penalty>  (209) 
0

>  <i_epik_Tot_Q>  (209) 
0

>  <i_f3d_flags>  (209) 
0

>  <s_m_job_name>  (209) 
Saureus_o

>  <FRED Chemgauss4 score>  (209) 
-11.964399

>  <Set>  (209) 
training

>  <HBA count>  (209) 
4

>  <HBD count>  (209) 
0

>  <ExactMolWt>  (209) 
347.9956141600003

>  <NumRotatableBounds>  (209) 
4

>  <FractionCsp3>  (209) 
0.0

>  <TPSA>  (209) 
52.58

>  <LogP_WildmanCrippen>  (209) 
5.502300000000002

>  <General_Cluster>  (209) 
4

>  <Biological_Cluster>  (209) 
2

>  <Physicochemical_Cluster>  (209) 
3

>  <Structural_Cluster>  (209) 
1

$$$$
FULL_S5
     RDKit          3D

 37 40  0  0  0  0  0  0  0  0999 V2000
  110.8108   65.9613   41.1543 C   0  0  0  0  0  0  0  0  0  0  0  0
  111.5208   71.5227   31.5896 C   0  0  0  0  0  0  0  0  0  0  0  0
  109.8879   66.7136   40.4278 C   0  0  0  0  0  0  0  0  0  0  0  0
  111.7246   65.1452   40.4874 C   0  0  0  0  0  0  0  0  0  0  0  0
  111.7750   72.5329   32.5147 C   0  0  0  0  0  0  0  0  0  0  0  0
  111.1641   70.2372   32.0124 C   0  0  0  0  0  0  0  0  0  0  0  0
  109.8786   66.6498   39.0345 C   0  0  0  0  0  0  0  0  0  0  0  0
  111.7153   65.0814   39.0941 C   0  0  0  0  0  0  0  0  0  0  0  0
  111.6815   72.2922   33.8883 C   0  0  0  0  0  0  0  0  0  0  0  0
  111.0623   69.9693   33.3923 C   0  0  0  0  0  0  0  0  0  0  0  0
  110.7923   65.8336   38.3675 C   0  0  0  0  0  0  0  0  0  0  0  0
  110.7351   68.8199   34.1620 C   0  0  0  0  0  0  0  0  0  0  0  0
  111.3242   71.0028   34.2989 C   0  0  0  0  0  0  0  0  0  0  0  0
  110.8095   69.1735   35.4927 C   0  0  0  0  0  0  0  0  0  0  0  0
  110.7824   65.7663   36.8983 C   0  0  0  0  0  0  0  0  0  0  0  0
  110.3778   67.4358   33.7488 C   0  0  0  0  0  0  0  0  0  0  0  0
  110.5424   68.2950   36.6613 C   0  0  0  0  0  0  0  0  0  0  0  0
  109.6575   66.7166   34.9024 C   0  0  0  0  0  0  0  0  0  0  0  0
  111.1612   70.4906   35.5690 N   0  0  0  0  0  0  0  0  0  0  0  0
  110.3662   66.8983   36.1875 N   0  0  0  0  0  0  0  0  0  0  0  0
  111.1401   64.7006   36.3984 O   0  0  0  0  0  0  0  0  0  0  0  0
  110.8180   66.0116   42.2531 H   0  0  0  0  0  0  0  0  0  0  0  0
  111.6014   71.7381   30.5139 H   0  0  0  0  0  0  0  0  0  0  0  0
  109.1674   67.3572   40.9537 H   0  0  0  0  0  0  0  0  0  0  0  0
  112.4525   64.5520   41.0603 H   0  0  0  0  0  0  0  0  0  0  0  0
  112.0537   73.5356   32.1585 H   0  0  0  0  0  0  0  0  0  0  0  0
  110.9654   69.4447   31.2759 H   0  0  0  0  0  0  0  0  0  0  0  0
  109.1507   67.2431   38.4616 H   0  0  0  0  0  0  0  0  0  0  0  0
  112.4359   64.4378   38.5682 H   0  0  0  0  0  0  0  0  0  0  0  0
  111.8817   73.0881   34.6208 H   0  0  0  0  0  0  0  0  0  0  0  0
  109.7140   67.4762   32.8726 H   0  0  0  0  0  0  0  0  0  0  0  0
  111.2951   66.8848   33.4940 H   0  0  0  0  0  0  0  0  0  0  0  0
  111.3907   68.3430   37.3600 H   0  0  0  0  0  0  0  0  0  0  0  0
  109.6301   68.6300   37.1766 H   0  0  0  0  0  0  0  0  0  0  0  0
  108.6398   67.1233   34.9959 H   0  0  0  0  0  0  0  0  0  0  0  0
  109.6326   65.6409   34.6736 H   0  0  0  0  0  0  0  0  0  0  0  0
  111.2859   71.0213   36.4429 H   0  0  0  0  0  0  0  0  0  0  0  0
  1  3  2  0
  1  4  1  0
  2  5  2  0
  2  6  1  0
  3  7  1  0
  4  8  2  0
  5  9  1  0
  6 10  2  0
  7 11  2  0
  8 11  1  0
  9 13  2  0
 10 12  1  0
 10 13  1  0
 11 15  1  0
 12 14  2  0
 12 16  1  0
 13 19  1  0
 14 17  1  0
 14 19  1  0
 15 20  1  0
 15 21  2  0
 16 18  1  0
 17 20  1  0
 18 20  1  0
  1 22  1  0
  2 23  1  0
  3 24  1  0
  4 25  1  0
  5 26  1  0
  6 27  1  0
  7 28  1  0
  8 29  1  0
  9 30  1  0
 16 31  1  0
 16 32  1  0
 17 33  1  0
 17 34  1  0
 18 35  1  0
 18 36  1  0
 19 37  1  0
M  END
>  <Name>  (210) 
FULL_S5

>  <Comment>  (210) 
 Schrodinger Suite 2021-4.

>  <s_m_entry_id>  (210) 
1366

>  <class_value>  (210) 
0

>  <s_m_Source_Path>  (210) 
C:\Users\vinicius\Desktop

>  <s_m_Source_File>  (210) 
Ligands_Saureus_o.sdf

>  <i_m_Source_File_Index>  (210) 
217

>  <r_lp_tautomer_probability>  (210) 
1

>  <r_epik_Ionization_Penalty>  (210) 
0

>  <r_epik_State_Penalty>  (210) 
0

>  <i_epik_Tot_Q>  (210) 
0

>  <i_f3d_flags>  (210) 
0

>  <s_m_job_name>  (210) 
Saureus_o

>  <FRED Chemgauss4 score>  (210) 
-12.969687

>  <Set>  (210) 
training

>  <HBA count>  (210) 
1

>  <HBD count>  (210) 
1

>  <ExactMolWt>  (210) 
276.1262631320004

>  <NumRotatableBounds>  (210) 
1

>  <FractionCsp3>  (210) 
0.16666666666666666

>  <TPSA>  (210) 
36.1

>  <LogP_WildmanCrippen>  (210) 
3.3664000000000014

>  <General_Cluster>  (210) 
2

>  <Biological_Cluster>  (210) 
2

>  <Physicochemical_Cluster>  (210) 
3

>  <Structural_Cluster>  (210) 
3

$$$$
CHEMBL3623409
     RDKit          3D

 41 43  0  0  0  0  0  0  0  0999 V2000
  107.0644   64.2174   45.4165 C   0  0  0  0  0  0  0  0  0  0  0  0
  107.6949   64.6567   44.2578 C   0  0  0  0  0  0  0  0  0  0  0  0
  109.0676   67.2573   34.7215 C   0  0  0  0  0  0  0  0  0  0  0  0
  109.9617   66.8475   35.7106 C   0  0  0  0  0  0  0  0  0  0  0  0
  109.9706   69.4954   34.8324 C   0  0  0  0  0  0  0  0  0  0  0  0
  107.1218   62.8652   45.7133 C   0  0  0  0  0  0  0  0  0  0  0  0
  108.3541   62.4124   43.8279 C   0  0  0  0  0  0  0  0  0  0  0  0
  108.3543   63.7434   43.4427 C   0  0  0  0  0  0  0  0  0  0  0  0
  109.0721   68.5812   34.2824 C   0  0  0  0  0  0  0  0  0  0  0  0
  110.8647   69.0857   35.8216 C   0  0  0  0  0  0  0  0  0  0  0  0
  110.8602   67.7617   36.2607 C   0  0  0  0  0  0  0  0  0  0  0  0
  110.8551   64.9673   40.0467 C   0  0  0  0  0  0  0  0  0  0  0  0
  110.3700   67.5582   39.1678 C   0  0  0  0  0  0  0  0  0  0  0  0
  111.1811   66.8366   38.3849 C   0  0  0  0  0  0  0  0  0  0  0  0
  110.0664   65.8123   40.7182 C   0  0  0  0  0  0  0  0  0  0  0  0
  111.4843   65.4431   38.7924 C   0  0  0  0  0  0  0  0  0  0  0  0
  109.0313   64.1772   42.2083 C   0  0  0  0  0  0  0  0  0  0  0  0
  109.4157   65.4338   41.9438 C   0  0  0  0  0  0  0  0  0  0  0  0
  108.1170   69.0183   33.2238 C   0  0  0  0  0  0  0  0  0  0  0  0
  111.8205   70.0773   36.3985 C   0  0  0  0  0  0  0  0  0  0  0  0
  107.7527   61.9481   44.9461 N   0  0  0  0  0  0  0  0  0  0  0  0
  112.2171   64.7169   38.1311 O   0  0  0  0  0  0  0  0  0  0  0  0
  109.7904   67.1061   40.3297 O   0  0  0  0  0  0  0  0  0  0  0  0
  111.7290   67.3430   37.2311 O   0  0  0  0  0  0  0  0  0  0  0  0
  106.5366   64.9212   46.0768 H   0  0  0  0  0  0  0  0  0  0  0  0
  107.6722   65.7226   43.9870 H   0  0  0  0  0  0  0  0  0  0  0  0
  108.3590   66.5364   34.2878 H   0  0  0  0  0  0  0  0  0  0  0  0
  109.9582   65.8034   36.0568 H   0  0  0  0  0  0  0  0  0  0  0  0
  109.9741   70.5395   34.4861 H   0  0  0  0  0  0  0  0  0  0  0  0
  106.6233   62.5164   46.6297 H   0  0  0  0  0  0  0  0  0  0  0  0
  108.8755   61.6888   43.1840 H   0  0  0  0  0  0  0  0  0  0  0  0
  111.0322   63.9462   40.4154 H   0  0  0  0  0  0  0  0  0  0  0  0
  110.1506   68.5907   38.8583 H   0  0  0  0  0  0  0  0  0  0  0  0
  109.2370   63.4117   41.4456 H   0  0  0  0  0  0  0  0  0  0  0  0
  109.2248   66.2110   42.6985 H   0  0  0  0  0  0  0  0  0  0  0  0
  107.2127   69.4321   33.6940 H   0  0  0  0  0  0  0  0  0  0  0  0
  108.5906   69.7893   32.5983 H   0  0  0  0  0  0  0  0  0  0  0  0
  107.8431   68.1559   32.5983 H   0  0  0  0  0  0  0  0  0  0  0  0
  111.7771   70.0323   37.4967 H   0  0  0  0  0  0  0  0  0  0  0  0
  112.8409   69.8417   36.0619 H   0  0  0  0  0  0  0  0  0  0  0  0
  111.5476   71.0883   36.0619 H   0  0  0  0  0  0  0  0  0  0  0  0
  1  2  2  0
  1  6  1  0
  2  8  1  0
  3  4  2  0
  3  9  1  0
  4 11  1  0
  5  9  2  0
  5 10  1  0
  6 21  2  0
  7  8  2  0
  7 21  1  0
  8 17  1  0
  9 19  1  0
 10 11  2  0
 10 20  1  0
 11 24  1  0
 12 15  2  0
 12 16  1  0
 13 14  2  0
 13 23  1  0
 14 16  1  0
 14 24  1  0
 15 18  1  0
 15 23  1  0
 16 22  2  0
 17 18  2  0
  1 25  1  0
  2 26  1  0
  3 27  1  0
  4 28  1  0
  5 29  1  0
  6 30  1  0
  7 31  1  0
 12 32  1  0
 13 33  1  0
 17 34  1  0
 18 35  1  0
 19 36  1  0
 19 37  1  0
 19 38  1  0
 20 39  1  0
 20 40  1  0
 20 41  1  0
M  END
>  <Name>  (211) 
CHEMBL3623409

>  <Comment>  (211) 
 Schrodinger Suite 2021-4.

>  <s_m_entry_id>  (211) 
1237

>  <class_value>  (211) 
0

>  <s_m_Source_Path>  (211) 
C:\Users\vinicius\Desktop

>  <s_m_Source_File>  (211) 
Ligands_Saureus_o.sdf

>  <i_m_Source_File_Index>  (211) 
130

>  <r_lp_tautomer_probability>  (211) 
1

>  <r_epik_Ionization_Penalty>  (211) 
0.0023

>  <r_epik_State_Penalty>  (211) 
0.0016

>  <i_epik_Tot_Q>  (211) 
0

>  <i_f3d_flags>  (211) 
0

>  <s_m_job_name>  (211) 
Saureus_o

>  <FRED Chemgauss4 score>  (211) 
-12.029089

>  <Set>  (211) 
training

>  <HBA count>  (211) 
4

>  <HBD count>  (211) 
0

>  <ExactMolWt>  (211) 
319.1208434040004

>  <NumRotatableBounds>  (211) 
6

>  <FractionCsp3>  (211) 
0.1

>  <TPSA>  (211) 
52.33

>  <LogP_WildmanCrippen>  (211) 
4.614340000000004

>  <General_Cluster>  (211) 
4

>  <Biological_Cluster>  (211) 
2

>  <Physicochemical_Cluster>  (211) 
1

>  <Structural_Cluster>  (211) 
1

$$$$
FULL_S10
     RDKit          3D

 51 55  0  0  0  0  0  0  0  0999 V2000
  112.2314   72.1076   35.0703 C   0  0  0  0  0  0  0  0  0  0  0  0
  111.3119   65.6724   33.1644 C   0  0  0  0  0  0  0  0  0  0  0  0
  112.5636   71.4919   36.2769 C   0  0  0  0  0  0  0  0  0  0  0  0
  111.0612   71.7471   34.4022 C   0  0  0  0  0  0  0  0  0  0  0  0
  110.8121   66.9558   32.9547 C   0  0  0  0  0  0  0  0  0  0  0  0
  111.4201   65.1482   34.4574 C   0  0  0  0  0  0  0  0  0  0  0  0
  110.1688   67.4580   42.3597 C   0  0  0  0  0  0  0  0  0  0  0  0
  107.9186   66.6506   42.0109 C   0  0  0  0  0  0  0  0  0  0  0  0
  111.7257   70.5155   36.8155 C   0  0  0  0  0  0  0  0  0  0  0  0
  110.2232   70.7707   34.9408 C   0  0  0  0  0  0  0  0  0  0  0  0
  110.4050   67.7548   34.0268 C   0  0  0  0  0  0  0  0  0  0  0  0
  109.6794   68.4603   43.1971 C   0  0  0  0  0  0  0  0  0  0  0  0
  107.4292   67.6529   42.8484 C   0  0  0  0  0  0  0  0  0  0  0  0
  111.0170   65.9343   35.5555 C   0  0  0  0  0  0  0  0  0  0  0  0
  109.2884   66.5531   41.7665 C   0  0  0  0  0  0  0  0  0  0  0  0
  110.9846   65.7370   36.9627 C   0  0  0  0  0  0  0  0  0  0  0  0
  110.5554   70.1548   36.1475 C   0  0  0  0  0  0  0  0  0  0  0  0
  110.5177   67.2194   35.3151 C   0  0  0  0  0  0  0  0  0  0  0  0
  108.3096   68.5578   43.4415 C   0  0  0  0  0  0  0  0  0  0  0  0
  110.4717   66.8826   37.5334 C   0  0  0  0  0  0  0  0  0  0  0  0
  109.8043   65.4960   40.8835 C   0  0  0  0  0  0  0  0  0  0  0  0
  111.3792   64.5687   37.7953 C   0  0  0  0  0  0  0  0  0  0  0  0
  110.2608   67.1350   38.9827 C   0  0  0  0  0  0  0  0  0  0  0  0
  111.6071   65.0170   39.2491 C   0  0  0  0  0  0  0  0  0  0  0  0
  109.6511   69.1014   36.7279 C   0  0  0  0  0  0  0  0  0  0  0  0
  110.1956   67.7736   36.5363 N   0  0  0  0  0  0  0  0  0  0  0  0
  110.5075   65.8783   39.7350 N   0  0  0  0  0  0  0  0  0  0  0  0
  109.5800   64.3373   41.2312 O   0  0  0  0  0  0  0  0  0  0  0  0
  107.8318   69.5359   44.2585 O   0  0  0  0  0  0  0  0  0  0  0  0
  112.8923   72.8775   34.6455 H   0  0  0  0  0  0  0  0  0  0  0  0
  111.6252   65.0638   32.3033 H   0  0  0  0  0  0  0  0  0  0  0  0
  113.4864   71.7763   36.8037 H   0  0  0  0  0  0  0  0  0  0  0  0
  110.7992   72.2328   33.4506 H   0  0  0  0  0  0  0  0  0  0  0  0
  110.7367   67.3465   31.9292 H   0  0  0  0  0  0  0  0  0  0  0  0
  111.8154   64.1338   34.6149 H   0  0  0  0  0  0  0  0  0  0  0  0
  111.2491   67.3811   42.1670 H   0  0  0  0  0  0  0  0  0  0  0  0
  107.2243   65.9370   41.5432 H   0  0  0  0  0  0  0  0  0  0  0  0
  111.9878   70.0299   37.7671 H   0  0  0  0  0  0  0  0  0  0  0  0
  109.3004   70.4864   34.4140 H   0  0  0  0  0  0  0  0  0  0  0  0
  110.0100   68.7684   33.8639 H   0  0  0  0  0  0  0  0  0  0  0  0
  110.3737   69.1739   43.6648 H   0  0  0  0  0  0  0  0  0  0  0  0
  106.3490   67.7297   43.0412 H   0  0  0  0  0  0  0  0  0  0  0  0
  110.5797   63.8137   37.7672 H   0  0  0  0  0  0  0  0  0  0  0  0
  112.3103   64.1381   37.3982 H   0  0  0  0  0  0  0  0  0  0  0  0
  110.9581   67.9132   39.3265 H   0  0  0  0  0  0  0  0  0  0  0  0
  109.2282   67.4732   39.1539 H   0  0  0  0  0  0  0  0  0  0  0  0
  111.6721   64.1260   39.8908 H   0  0  0  0  0  0  0  0  0  0  0  0
  112.5400   65.5986   39.2862 H   0  0  0  0  0  0  0  0  0  0  0  0
  109.5311   69.2869   37.8055 H   0  0  0  0  0  0  0  0  0  0  0  0
  108.6811   69.1555   36.2120 H   0  0  0  0  0  0  0  0  0  0  0  0
  106.8595   69.6050   44.4319 H   0  0  0  0  0  0  0  0  0  0  0  0
  1  3  2  0
  1  4  1  0
  2  5  2  0
  2  6  1  0
  3  9  1  0
  4 10  2  0
  5 11  1  0
  6 14  2  0
  7 12  2  0
  7 15  1  0
  8 13  1  0
  8 15  2  0
  9 17  2  0
 10 17  1  0
 11 18  2  0
 12 19  1  0
 13 19  2  0
 14 16  1  0
 14 18  1  0
 15 21  1  0
 16 20  2  0
 16 22  1  0
 17 25  1  0
 18 26  1  0
 19 29  1  0
 20 23  1  0
 20 26  1  0
 21 27  1  0
 21 28  2  0
 22 24  1  0
 23 27  1  0
 24 27  1  0
 25 26  1  0
  1 30  1  0
  2 31  1  0
  3 32  1  0
  4 33  1  0
  5 34  1  0
  6 35  1  0
  7 36  1  0
  8 37  1  0
  9 38  1  0
 10 39  1  0
 11 40  1  0
 12 41  1  0
 13 42  1  0
 22 43  1  0
 22 44  1  0
 23 45  1  0
 23 46  1  0
 24 47  1  0
 24 48  1  0
 25 49  1  0
 25 50  1  0
 29 51  1  0
M  END
>  <Name>  (212) 
FULL_S10

>  <Comment>  (212) 
 Schrodinger Suite 2021-4.

>  <s_m_entry_id>  (212) 
1384

>  <class_value>  (212) 
0

>  <s_m_Source_Path>  (212) 
C:\Users\vinicius\Desktop

>  <s_m_Source_File>  (212) 
Ligands_Saureus_o.sdf

>  <i_m_Source_File_Index>  (212) 
227

>  <r_lp_tautomer_probability>  (212) 
0.999999999997365

>  <r_epik_Ionization_Penalty>  (212) 
0.0145

>  <r_epik_State_Penalty>  (212) 
0.0114

>  <i_epik_Tot_Q>  (212) 
0

>  <i_f3d_flags>  (212) 
0

>  <s_m_job_name>  (212) 
Saureus_o

>  <FRED Chemgauss4 score>  (212) 
-12.370194

>  <Set>  (212) 
training

>  <HBA count>  (212) 
3

>  <HBD count>  (212) 
1

>  <ExactMolWt>  (212) 
382.1681279440006

>  <NumRotatableBounds>  (212) 
4

>  <FractionCsp3>  (212) 
0.16

>  <TPSA>  (212) 
45.47

>  <LogP_WildmanCrippen>  (212) 
4.593700000000005

>  <General_Cluster>  (212) 
3

>  <Biological_Cluster>  (212) 
2

>  <Physicochemical_Cluster>  (212) 
1

>  <Structural_Cluster>  (212) 
4

$$$$
CHEMBL4217672
     RDKit          3D

 39 41  0  0  1  0  0  0  0  0999 V2000
  108.9889   66.3389   42.5681 C   0  0  0  0  0  0  0  0  0  0  0  0
  108.4665   67.0255   41.4721 C   0  0  0  0  0  0  0  0  0  0  0  0
  110.2129   65.6789   42.4589 C   0  0  0  0  0  0  0  0  0  0  0  0
  109.7440   68.8061   31.6243 C   0  0  0  0  0  0  0  0  0  0  0  0
  109.1681   67.0522   40.2668 C   0  0  0  0  0  0  0  0  0  0  0  0
  110.9145   65.7056   41.2536 C   0  0  0  0  0  0  0  0  0  0  0  0
  109.5137   67.7383   32.4917 C   0  0  0  0  0  0  0  0  0  0  0  0
  110.2662   70.0030   32.1148 C   0  0  0  0  0  0  0  0  0  0  0  0
  110.3921   66.3922   40.1575 C   0  0  0  0  0  0  0  0  0  0  0  0
  109.8055   67.8673   33.8496 C   0  0  0  0  0  0  0  0  0  0  0  0
  110.5580   70.1320   33.4727 C   0  0  0  0  0  0  0  0  0  0  0  0
  110.3277   69.0642   34.3401 C   0  0  0  0  0  0  0  0  0  0  0  0
  110.8313   66.0098   35.1629 C   0  0  0  0  0  0  0  0  0  0  0  0
  112.0355   65.1979   38.5398 C   0  0  0  0  0  0  0  0  0  0  0  0
  112.2920   65.3156   37.0458 C   0  0  0  0  0  0  0  0  0  0  0  0
  110.2719   66.4932   37.5932 C   0  0  0  0  0  0  0  0  0  0  0  0
  111.1537   66.4205   38.8502 C   0  0  1  0  0  0  0  0  0  0  0  0
  109.5562   66.7172   34.7794 C   0  0  0  0  0  0  0  0  0  0  0  0
  111.0999   65.9561   36.5188 N   0  0  0  0  0  0  0  0  0  0  0  0
  111.5629   65.5294   34.2957 O   0  0  0  0  0  0  0  0  0  0  0  0
  111.0595   71.2811   33.9435 F   0  0  0  0  0  0  0  0  0  0  0  0
  110.6113   69.1977   35.6433 F   0  0  0  0  0  0  0  0  0  0  0  0
  108.4356   66.3179   43.5186 H   0  0  0  0  0  0  0  0  0  0  0  0
  107.5012   67.5459   41.5583 H   0  0  0  0  0  0  0  0  0  0  0  0
  110.6248   65.1374   43.3232 H   0  0  0  0  0  0  0  0  0  0  0  0
  109.5138   68.7043   30.5535 H   0  0  0  0  0  0  0  0  0  0  0  0
  108.7561   67.5937   39.4025 H   0  0  0  0  0  0  0  0  0  0  0  0
  111.8798   65.1852   41.1675 H   0  0  0  0  0  0  0  0  0  0  0  0
  109.1020   66.7945   32.1049 H   0  0  0  0  0  0  0  0  0  0  0  0
  110.4479   70.8451   31.4308 H   0  0  0  0  0  0  0  0  0  0  0  0
  111.5074   64.2622   38.7756 H   0  0  0  0  0  0  0  0  0  0  0  0
  112.9615   65.1757   39.1331 H   0  0  0  0  0  0  0  0  0  0  0  0
  113.1821   65.9322   36.8520 H   0  0  0  0  0  0  0  0  0  0  0  0
  112.4827   64.3389   36.5771 H   0  0  0  0  0  0  0  0  0  0  0  0
  109.3641   65.8855   37.7222 H   0  0  0  0  0  0  0  0  0  0  0  0
  109.9369   67.5196   37.3826 H   0  0  0  0  0  0  0  0  0  0  0  0
  111.7499   67.3264   39.0342 H   0  0  0  0  0  0  0  0  0  0  0  0
  109.0734   67.0972   35.6918 H   0  0  0  0  0  0  0  0  0  0  0  0
  108.9119   65.9941   34.2578 H   0  0  0  0  0  0  0  0  0  0  0  0
  1  2  2  0
  1  3  1  0
  2  5  1  0
  3  6  2  0
  4  7  2  0
  4  8  1  0
  5  9  2  0
  6  9  1  0
  7 10  1  0
  8 11  2  0
  9 17  1  0
 10 12  2  0
 10 18  1  0
 11 12  1  0
 11 21  1  0
 12 22  1  0
 13 18  1  0
 13 19  1  0
 13 20  2  0
 14 15  1  0
 14 17  1  0
 15 19  1  0
 16 17  1  0
 16 19  1  0
  1 23  1  0
  2 24  1  0
  3 25  1  0
  4 26  1  0
  5 27  1  0
  6 28  1  0
  7 29  1  0
  8 30  1  0
 14 31  1  0
 14 32  1  0
 15 33  1  0
 15 34  1  0
 16 35  1  0
 16 36  1  0
 17 37  1  1
 18 38  1  0
 18 39  1  0
M  END
>  <Name>  (213) 
CHEMBL4217672

>  <Comment>  (213) 
 Schrodinger Suite 2021-4.

>  <s_m_entry_id>  (213) 
1476

>  <s_m_Source_Path>  (213) 
C:\Users\vinicius\Desktop

>  <s_m_Source_File>  (213) 
Ligands_Saureus_failomega.smi

>  <i_m_Source_File_Index>  (213) 
27

>  <r_lp_tautomer_probability>  (213) 
1

>  <r_epik_Ionization_Penalty>  (213) 
0

>  <r_epik_State_Penalty>  (213) 
0

>  <i_epik_Tot_Q>  (213) 
0

>  <i_f3d_flags>  (213) 
0

>  <s_m_job_name>  (213) 
Saureus_fail

>  <class_value>  (213) 
0

>  <FRED Chemgauss4 score>  (213) 
-13.434544

>  <Set>  (213) 
training

>  <HBA count>  (213) 
1

>  <HBD count>  (213) 
0

>  <ExactMolWt>  (213) 
301.1278206040005

>  <NumRotatableBounds>  (213) 
3

>  <FractionCsp3>  (213) 
0.2777777777777778

>  <TPSA>  (213) 
20.310000000000002

>  <LogP_WildmanCrippen>  (213) 
3.5234000000000023

>  <General_Cluster>  (213) 
2

>  <Biological_Cluster>  (213) 
2

>  <Physicochemical_Cluster>  (213) 
3

>  <Structural_Cluster>  (213) 
3

$$$$
CHEMBL109420
     RDKit          3D

 54 56  0  0  0  0  0  0  0  0999 V2000
  111.1418   70.5198   34.9369 C   0  0  0  0  0  0  0  0  0  0  0  0
  110.0266   69.8797   34.3999 C   0  0  0  0  0  0  0  0  0  0  0  0
  111.8597   69.9439   35.9914 C   0  0  0  0  0  0  0  0  0  0  0  0
  109.7212   67.8596   40.8143 C   0  0  0  0  0  0  0  0  0  0  0  0
  109.5939   68.6472   34.8974 C   0  0  0  0  0  0  0  0  0  0  0  0
  108.3740   68.1778   40.9859 C   0  0  0  0  0  0  0  0  0  0  0  0
  111.9172   67.8494   37.5452 C   0  0  0  0  0  0  0  0  0  0  0  0
  109.2726   65.5881   41.5044 C   0  0  0  0  0  0  0  0  0  0  0  0
  111.4422   68.7018   36.5094 C   0  0  0  0  0  0  0  0  0  0  0  0
  110.1705   66.5647   41.0735 C   0  0  0  0  0  0  0  0  0  0  0  0
  107.9254   65.9063   41.6761 C   0  0  0  0  0  0  0  0  0  0  0  0
  110.3212   68.0834   35.9516 C   0  0  0  0  0  0  0  0  0  0  0  0
  107.4761   67.2012   41.4168 C   0  0  0  0  0  0  0  0  0  0  0  0
  111.0906   66.7508   37.5954 C   0  0  0  0  0  0  0  0  0  0  0  0
  111.5919   66.2296   40.8923 C   0  0  0  0  0  0  0  0  0  0  0  0
  107.3977   65.0959   44.5809 C   0  0  0  0  0  0  0  0  0  0  0  0
  107.8097   64.3919   45.8495 C   0  0  0  0  0  0  0  0  0  0  0  0
  109.0696   65.9525   36.3609 C   0  0  0  0  0  0  0  0  0  0  0  0
  113.4147   65.4432   39.4319 C   0  0  0  0  0  0  0  0  0  0  0  0
  107.7027   62.8757   43.4433 C   0  0  0  0  0  0  0  0  0  0  0  0
  106.9854   64.8409   42.1386 C   0  0  0  0  0  0  0  0  0  0  0  0
  111.1375   65.5718   38.4849 C   0  0  0  0  0  0  0  0  0  0  0  0
  110.1312   66.9008   36.6303 N   0  0  0  0  0  0  0  0  0  0  0  0
  106.1159   67.5414   41.5850 N   0  0  0  0  0  0  0  0  0  0  0  0
  112.0014   65.7651   39.6285 N   0  0  0  0  0  0  0  0  0  0  0  0
  107.3609   64.3014   43.4197 N   0  0  0  0  0  0  0  0  0  0  0  0
  112.3195   66.3959   41.8706 O   0  0  0  0  0  0  0  0  0  0  0  0
  107.1214   66.2977   44.6220 O   0  0  0  0  0  0  0  0  0  0  0  0
  111.4617   71.4892   34.5272 H   0  0  0  0  0  0  0  0  0  0  0  0
  109.4782   70.3518   33.5714 H   0  0  0  0  0  0  0  0  0  0  0  0
  112.7391   70.4547   36.4106 H   0  0  0  0  0  0  0  0  0  0  0  0
  110.4293   68.6298   40.4746 H   0  0  0  0  0  0  0  0  0  0  0  0
  108.7141   68.1392   34.4758 H   0  0  0  0  0  0  0  0  0  0  0  0
  108.0197   69.1989   40.7814 H   0  0  0  0  0  0  0  0  0  0  0  0
  112.7888   68.0355   38.1900 H   0  0  0  0  0  0  0  0  0  0  0  0
  109.6269   64.5670   41.7088 H   0  0  0  0  0  0  0  0  0  0  0  0
  107.4693   64.9736   46.7188 H   0  0  0  0  0  0  0  0  0  0  0  0
  107.3550   63.3907   45.8775 H   0  0  0  0  0  0  0  0  0  0  0  0
  108.9053   64.2980   45.8775 H   0  0  0  0  0  0  0  0  0  0  0  0
  108.6571   65.5840   37.3117 H   0  0  0  0  0  0  0  0  0  0  0  0
  108.2745   66.4465   35.7832 H   0  0  0  0  0  0  0  0  0  0  0  0
  109.4712   65.1069   35.7832 H   0  0  0  0  0  0  0  0  0  0  0  0
  113.9049   65.3316   40.4103 H   0  0  0  0  0  0  0  0  0  0  0  0
  113.5016   64.5023   38.8688 H   0  0  0  0  0  0  0  0  0  0  0  0
  113.9005   66.2537   38.8688 H   0  0  0  0  0  0  0  0  0  0  0  0
  107.7843   62.5354   44.4862 H   0  0  0  0  0  0  0  0  0  0  0  0
  106.9167   62.3017   42.9307 H   0  0  0  0  0  0  0  0  0  0  0  0
  108.6635   62.7205   42.9307 H   0  0  0  0  0  0  0  0  0  0  0  0
  105.9754   65.2696   42.2173 H   0  0  0  0  0  0  0  0  0  0  0  0
  107.0172   64.0216   41.4053 H   0  0  0  0  0  0  0  0  0  0  0  0
  110.1194   65.3629   38.8452 H   0  0  0  0  0  0  0  0  0  0  0  0
  111.5445   64.7331   37.9010 H   0  0  0  0  0  0  0  0  0  0  0  0
  105.4425   66.8297   41.9026 H   0  0  0  0  0  0  0  0  0  0  0  0
  105.7972   68.5013   41.3900 H   0  0  0  0  0  0  0  0  0  0  0  0
  1  2  2  0
  1  3  1  0
  2  5  1  0
  3  9  2  0
  4  6  2  0
  4 10  1  0
  5 12  2  0
  6 13  1  0
  7  9  1  0
  7 14  2  0
  8 10  2  0
  8 11  1  0
  9 12  1  0
 10 15  1  0
 11 13  2  0
 11 21  1  0
 12 23  1  0
 13 24  1  0
 14 22  1  0
 14 23  1  0
 15 25  1  0
 15 27  2  0
 16 17  1  0
 16 26  1  0
 16 28  2  0
 18 23  1  0
 19 25  1  0
 20 26  1  0
 21 26  1  0
 22 25  1  0
  1 29  1  0
  2 30  1  0
  3 31  1  0
  4 32  1  0
  5 33  1  0
  6 34  1  0
  7 35  1  0
  8 36  1  0
 17 37  1  0
 17 38  1  0
 17 39  1  0
 18 40  1  0
 18 41  1  0
 18 42  1  0
 19 43  1  0
 19 44  1  0
 19 45  1  0
 20 46  1  0
 20 47  1  0
 20 48  1  0
 21 49  1  0
 21 50  1  0
 22 51  1  0
 22 52  1  0
 24 53  1  0
 24 54  1  0
M  END
>  <Name>  (214) 
CHEMBL109420

>  <Comment>  (214) 
 Schrodinger Suite 2021-4.

>  <s_m_entry_id>  (214) 
1258

>  <class_value>  (214) 
0

>  <s_m_Source_Path>  (214) 
C:\Users\vinicius\Desktop

>  <s_m_Source_File>  (214) 
Ligands_Saureus_o.sdf

>  <i_m_Source_File_Index>  (214) 
150

>  <r_lp_tautomer_probability>  (214) 
1

>  <r_epik_Ionization_Penalty>  (214) 
0.0002

>  <r_epik_State_Penalty>  (214) 
0

>  <i_epik_Tot_Q>  (214) 
0

>  <i_f3d_flags>  (214) 
0

>  <s_m_job_name>  (214) 
Saureus_o

>  <FRED Chemgauss4 score>  (214) 
-12.455677

>  <Set>  (214) 
training

>  <HBA count>  (214) 
4

>  <HBD count>  (214) 
1

>  <ExactMolWt>  (214) 
378.2055760720008

>  <NumRotatableBounds>  (214) 
10

>  <FractionCsp3>  (214) 
0.2727272727272727

>  <TPSA>  (214) 
71.57

>  <LogP_WildmanCrippen>  (214) 
3.011

>  <General_Cluster>  (214) 
3

>  <Biological_Cluster>  (214) 
2

>  <Physicochemical_Cluster>  (214) 
1

>  <Structural_Cluster>  (214) 
4

$$$$
CHEMBL433326
     RDKit          3D

 52 56  0  0  0  0  0  0  0  0999 V2000
  108.4897   67.2579   34.0237 C   0  0  0  0  0  0  0  0  0  0  0  0
  109.1297   68.2813   33.3281 C   0  0  0  0  0  0  0  0  0  0  0  0
  108.9699   66.8265   35.2652 C   0  0  0  0  0  0  0  0  0  0  0  0
  109.1958   68.0524   40.6334 C   0  0  0  0  0  0  0  0  0  0  0  0
  109.0403   65.8452   41.6036 C   0  0  0  0  0  0  0  0  0  0  0  0
  111.9837   72.1770   34.5733 C   0  0  0  0  0  0  0  0  0  0  0  0
  111.7358   71.6941   36.9276 C   0  0  0  0  0  0  0  0  0  0  0  0
  110.2668   68.9051   33.8488 C   0  0  0  0  0  0  0  0  0  0  0  0
  107.8576   68.2859   40.9498 C   0  0  0  0  0  0  0  0  0  0  0  0
  107.7020   66.0787   41.9201 C   0  0  0  0  0  0  0  0  0  0  0  0
  111.4286   73.4408   34.7741 C   0  0  0  0  0  0  0  0  0  0  0  0
  111.1808   72.9580   37.1284 C   0  0  0  0  0  0  0  0  0  0  0  0
  110.1153   67.4395   35.8124 C   0  0  0  0  0  0  0  0  0  0  0  0
  109.7872   66.8320   40.9602 C   0  0  0  0  0  0  0  0  0  0  0  0
  110.8602   67.2626   37.0133 C   0  0  0  0  0  0  0  0  0  0  0  0
  112.1372   71.3036   35.6501 C   0  0  0  0  0  0  0  0  0  0  0  0
  110.7378   68.4649   35.0910 C   0  0  0  0  0  0  0  0  0  0  0  0
  107.1107   67.2991   41.5932 C   0  0  0  0  0  0  0  0  0  0  0  0
  111.0273   73.8313   36.0516 C   0  0  0  0  0  0  0  0  0  0  0  0
  111.8988   68.1686   36.9836 C   0  0  0  0  0  0  0  0  0  0  0  0
  111.1884   66.5875   40.6291 C   0  0  0  0  0  0  0  0  0  0  0  0
  110.6507   66.3062   38.1387 C   0  0  0  0  0  0  0  0  0  0  0  0
  112.9221   68.3372   38.0444 C   0  0  0  0  0  0  0  0  0  0  0  0
  112.9287   67.0680   38.9110 C   0  0  0  0  0  0  0  0  0  0  0  0
  112.7365   69.9403   35.4338 C   0  0  0  0  0  0  0  0  0  0  0  0
  111.8208   68.8917   35.8303 N   0  0  0  0  0  0  0  0  0  0  0  0
  111.5550   66.6486   39.2690 N   0  0  0  0  0  0  0  0  0  0  0  0
  112.0028   66.3425   41.5211 O   0  0  0  0  0  0  0  0  0  0  0  0
  105.8048   67.5265   41.9020 O   0  0  0  0  0  0  0  0  0  0  0  0
  110.4869   75.0651   36.2476 O   0  0  0  0  0  0  0  0  0  0  0  0
  107.5962   66.7833   33.5918 H   0  0  0  0  0  0  0  0  0  0  0  0
  108.7338   68.6035   32.3537 H   0  0  0  0  0  0  0  0  0  0  0  0
  108.4591   66.0177   35.8083 H   0  0  0  0  0  0  0  0  0  0  0  0
  109.7849   68.8307   40.1261 H   0  0  0  0  0  0  0  0  0  0  0  0
  109.5066   64.8829   41.8614 H   0  0  0  0  0  0  0  0  0  0  0  0
  112.3004   71.8691   33.5659 H   0  0  0  0  0  0  0  0  0  0  0  0
  111.8569   71.0054   37.7767 H   0  0  0  0  0  0  0  0  0  0  0  0
  110.7737   69.7136   33.3016 H   0  0  0  0  0  0  0  0  0  0  0  0
  107.3913   69.2482   40.6919 H   0  0  0  0  0  0  0  0  0  0  0  0
  107.1129   65.3005   42.4275 H   0  0  0  0  0  0  0  0  0  0  0  0
  111.3073   74.1295   33.9250 H   0  0  0  0  0  0  0  0  0  0  0  0
  110.8642   73.2660   38.1358 H   0  0  0  0  0  0  0  0  0  0  0  0
  109.6057   66.3645   38.4771 H   0  0  0  0  0  0  0  0  0  0  0  0
  110.8733   65.2859   37.7931 H   0  0  0  0  0  0  0  0  0  0  0  0
  113.9122   68.4811   37.5872 H   0  0  0  0  0  0  0  0  0  0  0  0
  112.6885   69.2174   38.6613 H   0  0  0  0  0  0  0  0  0  0  0  0
  113.4161   66.2558   38.3517 H   0  0  0  0  0  0  0  0  0  0  0  0
  113.4759   67.2870   39.8398 H   0  0  0  0  0  0  0  0  0  0  0  0
  112.9776   69.8205   34.3673 H   0  0  0  0  0  0  0  0  0  0  0  0
  113.6436   69.8592   36.0506 H   0  0  0  0  0  0  0  0  0  0  0  0
  105.2749   66.8260   42.3587 H   0  0  0  0  0  0  0  0  0  0  0  0
  110.2020   75.3424   37.1543 H   0  0  0  0  0  0  0  0  0  0  0  0
  1  2  2  0
  1  3  1  0
  2  8  1  0
  3 13  2  0
  4  9  2  0
  4 14  1  0
  5 10  1  0
  5 14  2  0
  6 11  2  0
  6 16  1  0
  7 12  1  0
  7 16  2  0
  8 17  2  0
  9 18  1  0
 10 18  2  0
 11 19  1  0
 12 19  2  0
 13 15  1  0
 13 17  1  0
 14 21  1  0
 15 20  2  0
 15 22  1  0
 16 25  1  0
 17 26  1  0
 18 29  1  0
 19 30  1  0
 20 23  1  0
 20 26  1  0
 21 27  1  0
 21 28  2  0
 22 27  1  0
 23 24  1  0
 24 27  1  0
 25 26  1  0
  1 31  1  0
  2 32  1  0
  3 33  1  0
  4 34  1  0
  5 35  1  0
  6 36  1  0
  7 37  1  0
  8 38  1  0
  9 39  1  0
 10 40  1  0
 11 41  1  0
 12 42  1  0
 22 43  1  0
 22 44  1  0
 23 45  1  0
 23 46  1  0
 24 47  1  0
 24 48  1  0
 25 49  1  0
 25 50  1  0
 29 51  1  0
 30 52  1  0
M  END
>  <Name>  (215) 
CHEMBL433326

>  <Comment>  (215) 
 Schrodinger Suite 2021-4.

>  <s_m_entry_id>  (215) 
1277

>  <class_value>  (215) 
0

>  <s_m_Source_Path>  (215) 
C:\Users\vinicius\Desktop

>  <s_m_Source_File>  (215) 
Ligands_Saureus_o.sdf

>  <i_m_Source_File_Index>  (215) 
164

>  <r_lp_tautomer_probability>  (215) 
0.99999999999473

>  <r_epik_Ionization_Penalty>  (215) 
0.0155

>  <r_epik_State_Penalty>  (215) 
0.0114

>  <i_epik_Tot_Q>  (215) 
0

>  <i_f3d_flags>  (215) 
0

>  <s_m_job_name>  (215) 
Saureus_o

>  <FRED Chemgauss4 score>  (215) 
-11.628607

>  <Set>  (215) 
training

>  <HBA count>  (215) 
4

>  <HBD count>  (215) 
2

>  <ExactMolWt>  (215) 
398.1630425640006

>  <NumRotatableBounds>  (215) 
5

>  <FractionCsp3>  (215) 
0.16

>  <TPSA>  (215) 
65.7

>  <LogP_WildmanCrippen>  (215) 
4.299300000000004

>  <General_Cluster>  (215) 
3

>  <Biological_Cluster>  (215) 
2

>  <Physicochemical_Cluster>  (215) 
1

>  <Structural_Cluster>  (215) 
4

$$$$
CHEMBL70636
     RDKit          3D

 51 55  0  0  0  0  0  0  0  0999 V2000
  108.2470   68.7458   42.9615 C   0  0  0  0  0  0  0  0  0  0  0  0
  111.5105   65.5272   32.8648 C   0  0  0  0  0  0  0  0  0  0  0  0
  109.6230   68.6948   42.7386 C   0  0  0  0  0  0  0  0  0  0  0  0
  107.4132   67.7788   42.3999 C   0  0  0  0  0  0  0  0  0  0  0  0
  110.9608   66.7776   32.5906 C   0  0  0  0  0  0  0  0  0  0  0  0
  111.6222   65.0671   34.1817 C   0  0  0  0  0  0  0  0  0  0  0  0
  110.1652   67.6769   41.9541 C   0  0  0  0  0  0  0  0  0  0  0  0
  107.9554   66.7609   41.6153 C   0  0  0  0  0  0  0  0  0  0  0  0
  111.6710   70.5433   36.2957 C   0  0  0  0  0  0  0  0  0  0  0  0
  110.1858   70.6511   34.3931 C   0  0  0  0  0  0  0  0  0  0  0  0
  110.5058   67.6063   33.6199 C   0  0  0  0  0  0  0  0  0  0  0  0
  112.4750   71.5293   35.7239 C   0  0  0  0  0  0  0  0  0  0  0  0
  110.9898   71.6372   33.8214 C   0  0  0  0  0  0  0  0  0  0  0  0
  111.1714   65.8844   35.2377 C   0  0  0  0  0  0  0  0  0  0  0  0
  109.3314   66.7099   41.3924 C   0  0  0  0  0  0  0  0  0  0  0  0
  111.1275   65.7497   36.6520 C   0  0  0  0  0  0  0  0  0  0  0  0
  110.5264   70.1041   35.6302 C   0  0  0  0  0  0  0  0  0  0  0  0
  110.6225   67.1351   34.9327 C   0  0  0  0  0  0  0  0  0  0  0  0
  112.1344   72.0763   34.4868 C   0  0  0  0  0  0  0  0  0  0  0  0
  110.5594   66.8973   37.1634 C   0  0  0  0  0  0  0  0  0  0  0  0
  109.9032   65.6366   40.5651 C   0  0  0  0  0  0  0  0  0  0  0  0
  111.5585   64.6379   37.5419 C   0  0  0  0  0  0  0  0  0  0  0  0
  110.3177   67.2059   38.5969 C   0  0  0  0  0  0  0  0  0  0  0  0
  111.7471   65.1607   38.9763 C   0  0  0  0  0  0  0  0  0  0  0  0
  109.6586   69.0407   36.2472 C   0  0  0  0  0  0  0  0  0  0  0  0
  110.2605   67.7298   36.1232 N   0  0  0  0  0  0  0  0  0  0  0  0
  110.6060   65.9959   39.4089 N   0  0  0  0  0  0  0  0  0  0  0  0
  109.7223   64.4865   40.9626 O   0  0  0  0  0  0  0  0  0  0  0  0
  112.9184   73.0394   33.9297 O   0  0  0  0  0  0  0  0  0  0  0  0
  107.8194   69.5486   43.5801 H   0  0  0  0  0  0  0  0  0  0  0  0
  111.8609   64.8941   32.0363 H   0  0  0  0  0  0  0  0  0  0  0  0
  110.2805   69.4573   43.1815 H   0  0  0  0  0  0  0  0  0  0  0  0
  106.3281   67.8189   42.5758 H   0  0  0  0  0  0  0  0  0  0  0  0
  110.8837   67.1180   31.5475 H   0  0  0  0  0  0  0  0  0  0  0  0
  112.0570   64.0785   34.3903 H   0  0  0  0  0  0  0  0  0  0  0  0
  111.2503   67.6367   41.7784 H   0  0  0  0  0  0  0  0  0  0  0  0
  107.2978   65.9984   41.1723 H   0  0  0  0  0  0  0  0  0  0  0  0
  111.9395   70.1121   37.2714 H   0  0  0  0  0  0  0  0  0  0  0  0
  109.2832   70.3048   33.8684 H   0  0  0  0  0  0  0  0  0  0  0  0
  110.0713   68.5939   33.4059 H   0  0  0  0  0  0  0  0  0  0  0  0
  113.3777   71.8755   36.2486 H   0  0  0  0  0  0  0  0  0  0  0  0
  110.7212   72.0686   32.8458 H   0  0  0  0  0  0  0  0  0  0  0  0
  110.7915   63.8494   37.5386 H   0  0  0  0  0  0  0  0  0  0  0  0
  112.5121   64.2293   37.1763 H   0  0  0  0  0  0  0  0  0  0  0  0
  110.9770   68.0277   38.9132 H   0  0  0  0  0  0  0  0  0  0  0  0
  109.2696   67.5076   38.7399 H   0  0  0  0  0  0  0  0  0  0  0  0
  111.8401   64.3031   39.6589 H   0  0  0  0  0  0  0  0  0  0  0  0
  112.6544   65.7822   38.9980 H   0  0  0  0  0  0  0  0  0  0  0  0
  109.5159   69.2695   37.3136 H   0  0  0  0  0  0  0  0  0  0  0  0
  108.6945   69.0304   35.7176 H   0  0  0  0  0  0  0  0  0  0  0  0
  112.6768   73.4277   33.0517 H   0  0  0  0  0  0  0  0  0  0  0  0
  1  3  2  0
  1  4  1  0
  2  5  2  0
  2  6  1  0
  3  7  1  0
  4  8  2  0
  5 11  1  0
  6 14  2  0
  7 15  2  0
  8 15  1  0
  9 12  2  0
  9 17  1  0
 10 13  1  0
 10 17  2  0
 11 18  2  0
 12 19  1  0
 13 19  2  0
 14 16  1  0
 14 18  1  0
 15 21  1  0
 16 20  2  0
 16 22  1  0
 17 25  1  0
 18 26  1  0
 19 29  1  0
 20 23  1  0
 20 26  1  0
 21 27  1  0
 21 28  2  0
 22 24  1  0
 23 27  1  0
 24 27  1  0
 25 26  1  0
  1 30  1  0
  2 31  1  0
  3 32  1  0
  4 33  1  0
  5 34  1  0
  6 35  1  0
  7 36  1  0
  8 37  1  0
  9 38  1  0
 10 39  1  0
 11 40  1  0
 12 41  1  0
 13 42  1  0
 22 43  1  0
 22 44  1  0
 23 45  1  0
 23 46  1  0
 24 47  1  0
 24 48  1  0
 25 49  1  0
 25 50  1  0
 29 51  1  0
M  END
>  <Name>  (216) 
CHEMBL70636

>  <Comment>  (216) 
 Schrodinger Suite 2021-4.

>  <s_m_entry_id>  (216) 
1173

>  <class_value>  (216) 
1

>  <s_m_Source_Path>  (216) 
C:\Users\vinicius\Desktop

>  <s_m_Source_File>  (216) 
Ligands_Saureus_o.sdf

>  <i_m_Source_File_Index>  (216) 
79

>  <r_lp_tautomer_probability>  (216) 
0.999999999997365

>  <r_epik_Ionization_Penalty>  (216) 
0.0009

>  <r_epik_State_Penalty>  (216) 
0.0006

>  <i_epik_Tot_Q>  (216) 
0

>  <i_f3d_flags>  (216) 
0

>  <s_m_job_name>  (216) 
Saureus_o

>  <FRED Chemgauss4 score>  (216) 
-12.484434

>  <Set>  (216) 
training

>  <HBA count>  (216) 
3

>  <HBD count>  (216) 
1

>  <ExactMolWt>  (216) 
382.1681279440006

>  <NumRotatableBounds>  (216) 
4

>  <FractionCsp3>  (216) 
0.16

>  <TPSA>  (216) 
45.47

>  <LogP_WildmanCrippen>  (216) 
4.593700000000005

>  <General_Cluster>  (216) 
3

>  <Biological_Cluster>  (216) 
1

>  <Physicochemical_Cluster>  (216) 
1

>  <Structural_Cluster>  (216) 
4

$$$$
CHEMBL3623424
     RDKit          3D

 52 54  0  0  0  0  0  0  0  0999 V2000
  106.3789   62.7748   44.7031 C   0  0  0  0  0  0  0  0  0  0  0  0
  107.7700   62.8736   44.7266 C   0  0  0  0  0  0  0  0  0  0  0  0
  105.6598   63.3070   43.6328 C   0  0  0  0  0  0  0  0  0  0  0  0
  108.4421   63.5048   43.6799 C   0  0  0  0  0  0  0  0  0  0  0  0
  106.3319   63.9382   42.5861 C   0  0  0  0  0  0  0  0  0  0  0  0
  110.4235   66.6055   35.4209 C   0  0  0  0  0  0  0  0  0  0  0  0
  109.5496   66.7675   34.3460 C   0  0  0  0  0  0  0  0  0  0  0  0
  109.7281   69.1671   34.5624 C   0  0  0  0  0  0  0  0  0  0  0  0
  110.6021   69.0051   35.6374 C   0  0  0  0  0  0  0  0  0  0  0  0
  107.7231   64.0371   42.6096 C   0  0  0  0  0  0  0  0  0  0  0  0
  110.9498   67.7243   36.0667 C   0  0  0  0  0  0  0  0  0  0  0  0
  109.2019   68.0483   33.9167 C   0  0  0  0  0  0  0  0  0  0  0  0
  110.9322   64.7057   39.4832 C   0  0  0  0  0  0  0  0  0  0  0  0
  110.7138   67.4705   39.2343 C   0  0  0  0  0  0  0  0  0  0  0  0
  111.3252   66.8617   38.2083 C   0  0  0  0  0  0  0  0  0  0  0  0
  110.3373   65.4335   40.4494 C   0  0  0  0  0  0  0  0  0  0  0  0
  111.4753   65.3848   38.2763 C   0  0  0  0  0  0  0  0  0  0  0  0
  111.1543   70.2138   36.3183 C   0  0  0  0  0  0  0  0  0  0  0  0
  110.9240   69.7697   44.3487 C   0  0  0  0  0  0  0  0  0  0  0  0
  109.7933   64.7282   41.6651 C   0  0  0  0  0  0  0  0  0  0  0  0
  109.8955   69.1245   43.4329 C   0  0  0  0  0  0  0  0  0  0  0  0
  110.5672   68.3254   42.3139 C   0  0  0  0  0  0  0  0  0  0  0  0
  109.5601   67.6170   41.4139 C   0  0  0  0  0  0  0  0  0  0  0  0
  110.2072   66.8325   40.3608 N   0  0  0  0  0  0  0  0  0  0  0  0
  112.0222   64.7486   37.3826 O   0  0  0  0  0  0  0  0  0  0  0  0
  111.8057   67.5478   37.1198 O   0  0  0  0  0  0  0  0  0  0  0  0
  108.3847   64.6606   41.5789 O   0  0  0  0  0  0  0  0  0  0  0  0
  108.1237   68.2488   32.5907 Cl  0  0  0  0  0  0  0  0  0  0  0  0
  105.8489   62.2772   45.5286 H   0  0  0  0  0  0  0  0  0  0  0  0
  108.3370   62.4538   45.5705 H   0  0  0  0  0  0  0  0  0  0  0  0
  104.5627   63.2289   43.6142 H   0  0  0  0  0  0  0  0  0  0  0  0
  109.5392   63.5828   43.6985 H   0  0  0  0  0  0  0  0  0  0  0  0
  105.7648   64.3580   41.7422 H   0  0  0  0  0  0  0  0  0  0  0  0
  110.6977   65.5954   35.7594 H   0  0  0  0  0  0  0  0  0  0  0  0
  109.1346   65.8852   33.8368 H   0  0  0  0  0  0  0  0  0  0  0  0
  109.4539   70.1772   34.2239 H   0  0  0  0  0  0  0  0  0  0  0  0
  111.0157   63.6138   39.5869 H   0  0  0  0  0  0  0  0  0  0  0  0
  110.6040   68.5637   39.1805 H   0  0  0  0  0  0  0  0  0  0  0  0
  111.0934   70.0804   37.4085 H   0  0  0  0  0  0  0  0  0  0  0  0
  112.2051   70.3525   36.0240 H   0  0  0  0  0  0  0  0  0  0  0  0
  110.5712   71.0989   36.0240 H   0  0  0  0  0  0  0  0  0  0  0  0
  110.6429   69.5934   45.3975 H   0  0  0  0  0  0  0  0  0  0  0  0
  111.9138   69.3304   44.1555 H   0  0  0  0  0  0  0  0  0  0  0  0
  110.9592   70.8520   44.1555 H   0  0  0  0  0  0  0  0  0  0  0  0
  110.2070   63.7101   41.7142 H   0  0  0  0  0  0  0  0  0  0  0  0
  110.0792   65.2840   42.5703 H   0  0  0  0  0  0  0  0  0  0  0  0
  109.2629   68.4476   44.0259 H   0  0  0  0  0  0  0  0  0  0  0  0
  109.2918   69.9217   42.9746 H   0  0  0  0  0  0  0  0  0  0  0  0
  111.1656   69.0141   41.6994 H   0  0  0  0  0  0  0  0  0  0  0  0
  111.1938   67.5538   42.7851 H   0  0  0  0  0  0  0  0  0  0  0  0
  108.9480   66.9428   42.0310 H   0  0  0  0  0  0  0  0  0  0  0  0
  108.9449   68.3882   40.9273 H   0  0  0  0  0  0  0  0  0  0  0  0
  1  2  2  0
  1  3  1  0
  2  4  1  0
  3  5  2  0
  4 10  2  0
  5 10  1  0
  6  7  2  0
  6 11  1  0
  7 12  1  0
  8  9  1  0
  8 12  2  0
  9 11  2  0
  9 18  1  0
 10 27  1  0
 11 26  1  0
 12 28  1  0
 13 16  2  0
 13 17  1  0
 14 15  2  0
 14 24  1  0
 15 17  1  0
 15 26  1  0
 16 20  1  0
 16 24  1  0
 17 25  2  0
 19 21  1  0
 20 27  1  0
 21 22  1  0
 22 23  1  0
 23 24  1  0
  1 29  1  0
  2 30  1  0
  3 31  1  0
  4 32  1  0
  5 33  1  0
  6 34  1  0
  7 35  1  0
  8 36  1  0
 13 37  1  0
 14 38  1  0
 18 39  1  0
 18 40  1  0
 18 41  1  0
 19 42  1  0
 19 43  1  0
 19 44  1  0
 20 45  1  0
 20 46  1  0
 21 47  1  0
 21 48  1  0
 22 49  1  0
 22 50  1  0
 23 51  1  0
 23 52  1  0
M  END
>  <Name>  (217) 
CHEMBL3623424

>  <Comment>  (217) 
 Schrodinger Suite 2021-4.

>  <s_m_entry_id>  (217) 
1175

>  <class_value>  (217) 
1

>  <s_m_Source_Path>  (217) 
C:\Users\vinicius\Desktop

>  <s_m_Source_File>  (217) 
Ligands_Saureus_o.sdf

>  <i_m_Source_File_Index>  (217) 
81

>  <r_lp_tautomer_probability>  (217) 
1

>  <r_epik_Ionization_Penalty>  (217) 
0

>  <r_epik_State_Penalty>  (217) 
0

>  <i_epik_Tot_Q>  (217) 
0

>  <i_f3d_flags>  (217) 
0

>  <s_m_job_name>  (217) 
Saureus_o

>  <FRED Chemgauss4 score>  (217) 
-11.336353

>  <Set>  (217) 
training

>  <HBA count>  (217) 
4

>  <HBD count>  (217) 
0

>  <ExactMolWt>  (217) 
397.1444713080006

>  <NumRotatableBounds>  (217) 
10

>  <FractionCsp3>  (217) 
0.2608695652173913

>  <TPSA>  (217) 
40.46

>  <LogP_WildmanCrippen>  (217) 
5.981520000000004

>  <General_Cluster>  (217) 
1

>  <Biological_Cluster>  (217) 
1

>  <Physicochemical_Cluster>  (217) 
1

>  <Structural_Cluster>  (217) 
5

$$$$
CHEMBL4213777
     RDKit          3D

 43 45  0  0  1  0  0  0  0  0999 V2000
  111.5235   71.2305   31.6125 C   0  0  0  0  0  0  0  0  0  0  0  0
  112.1612   72.2444   32.3271 C   0  0  0  0  0  0  0  0  0  0  0  0
  110.0578   66.2298   41.4917 C   0  0  0  0  0  0  0  0  0  0  0  0
  110.8155   70.2382   32.2907 C   0  0  0  0  0  0  0  0  0  0  0  0
  112.0912   72.2661   33.7200 C   0  0  0  0  0  0  0  0  0  0  0  0
  109.7683   67.3356   40.6923 C   0  0  0  0  0  0  0  0  0  0  0  0
  110.7917   65.1647   40.9697 C   0  0  0  0  0  0  0  0  0  0  0  0
  110.7454   70.2599   33.6837 C   0  0  0  0  0  0  0  0  0  0  0  0
  110.9465   66.3110   38.8486 C   0  0  0  0  0  0  0  0  0  0  0  0
  111.3833   71.2739   34.3983 C   0  0  0  0  0  0  0  0  0  0  0  0
  110.2126   67.3762   39.3707 C   0  0  0  0  0  0  0  0  0  0  0  0
  111.2361   65.2053   39.6481 C   0  0  0  0  0  0  0  0  0  0  0  0
  110.3138   66.0802   36.4457 C   0  0  0  0  0  0  0  0  0  0  0  0
  109.3366   68.0842   33.5231 C   0  0  0  0  0  0  0  0  0  0  0  0
  109.0404   66.9634   34.5068 C   0  0  0  0  0  0  0  0  0  0  0  0
  110.8064   68.3346   35.3836 C   0  0  0  0  0  0  0  0  0  0  0  0
  109.9733   69.1751   34.4025 C   0  0  1  0  0  0  0  0  0  0  0  0
  112.0058   72.3810   36.4089 C   0  0  0  0  0  0  0  0  0  0  0  0
  111.4245   66.3548   37.4276 C   0  0  0  0  0  0  0  0  0  0  0  0
  110.0804   67.0759   35.5143 N   0  0  0  0  0  0  0  0  0  0  0  0
  109.6746   65.0285   36.5054 O   0  0  0  0  0  0  0  0  0  0  0  0
  111.3253   71.3093   35.7591 O   0  0  0  0  0  0  0  0  0  0  0  0
  109.9292   68.4428   38.6103 F   0  0  0  0  0  0  0  0  0  0  0  0
  111.9403   64.1769   39.1552 F   0  0  0  0  0  0  0  0  0  0  0  0
  111.5789   71.2133   30.5140 H   0  0  0  0  0  0  0  0  0  0  0  0
  112.7193   73.0269   31.7922 H   0  0  0  0  0  0  0  0  0  0  0  0
  109.7073   66.1977   42.5339 H   0  0  0  0  0  0  0  0  0  0  0  0
  110.3125   69.4386   31.7271 H   0  0  0  0  0  0  0  0  0  0  0  0
  112.5943   73.0657   34.2836 H   0  0  0  0  0  0  0  0  0  0  0  0
  109.1896   68.1756   41.1041 H   0  0  0  0  0  0  0  0  0  0  0  0
  111.0200   64.2927   41.6002 H   0  0  0  0  0  0  0  0  0  0  0  0
  110.0370   67.7487   32.7440 H   0  0  0  0  0  0  0  0  0  0  0  0
  108.4406   68.4333   32.9889 H   0  0  0  0  0  0  0  0  0  0  0  0
  108.0462   67.0958   34.9585 H   0  0  0  0  0  0  0  0  0  0  0  0
  109.0329   65.9753   34.0235 H   0  0  0  0  0  0  0  0  0  0  0  0
  111.8153   68.1590   34.9820 H   0  0  0  0  0  0  0  0  0  0  0  0
  110.9362   68.8390   36.3525 H   0  0  0  0  0  0  0  0  0  0  0  0
  109.2179   69.8124   34.8854 H   0  0  0  0  0  0  0  0  0  0  0  0
  111.9275   72.2576   37.4991 H   0  0  0  0  0  0  0  0  0  0  0  0
  113.0656   72.3746   36.1144 H   0  0  0  0  0  0  0  0  0  0  0  0
  111.5492   73.3374   36.1144 H   0  0  0  0  0  0  0  0  0  0  0  0
  111.8392   67.3530   37.2237 H   0  0  0  0  0  0  0  0  0  0  0  0
  112.1873   65.5721   37.3030 H   0  0  0  0  0  0  0  0  0  0  0  0
  1  2  2  0
  1  4  1  0
  2  5  1  0
  3  6  2  0
  3  7  1  0
  4  8  2  0
  5 10  2  0
  6 11  1  0
  7 12  2  0
  8 10  1  0
  8 17  1  0
  9 11  2  0
  9 12  1  0
  9 19  1  0
 10 22  1  0
 11 23  1  0
 12 24  1  0
 13 19  1  0
 13 20  1  0
 13 21  2  0
 14 15  1  0
 14 17  1  0
 15 20  1  0
 16 17  1  0
 16 20  1  0
 18 22  1  0
  1 25  1  0
  2 26  1  0
  3 27  1  0
  4 28  1  0
  5 29  1  0
  6 30  1  0
  7 31  1  0
 14 32  1  0
 14 33  1  0
 15 34  1  0
 15 35  1  0
 16 36  1  0
 16 37  1  0
 17 38  1  1
 18 39  1  0
 18 40  1  0
 18 41  1  0
 19 42  1  0
 19 43  1  0
M  END
>  <Name>  (218) 
CHEMBL4213777

>  <Comment>  (218) 
 Schrodinger Suite 2021-4.

>  <s_m_entry_id>  (218) 
1470

>  <s_m_Source_Path>  (218) 
C:\Users\vinicius\Desktop

>  <s_m_Source_File>  (218) 
Ligands_Saureus_failomega.smi

>  <i_m_Source_File_Index>  (218) 
24

>  <r_lp_tautomer_probability>  (218) 
1

>  <r_epik_Ionization_Penalty>  (218) 
0

>  <r_epik_State_Penalty>  (218) 
0

>  <i_epik_Tot_Q>  (218) 
0

>  <i_f3d_flags>  (218) 
0

>  <s_m_job_name>  (218) 
Saureus_fail

>  <class_value>  (218) 
0

>  <FRED Chemgauss4 score>  (218) 
-13.648024

>  <Set>  (218) 
training

>  <HBA count>  (218) 
2

>  <HBD count>  (218) 
0

>  <ExactMolWt>  (218) 
331.1383852880005

>  <NumRotatableBounds>  (218) 
5

>  <FractionCsp3>  (218) 
0.3157894736842105

>  <TPSA>  (218) 
29.540000000000003

>  <LogP_WildmanCrippen>  (218) 
3.5320000000000027

>  <General_Cluster>  (218) 
2

>  <Biological_Cluster>  (218) 
2

>  <Physicochemical_Cluster>  (218) 
3

>  <Structural_Cluster>  (218) 
3

$$$$
CHEMBL307563
     RDKit          3D

 52 56  0  0  0  0  0  0  0  0999 V2000
  111.5664   65.4719   33.0887 C   0  0  0  0  0  0  0  0  0  0  0  0
  111.0358   66.7154   32.7521 C   0  0  0  0  0  0  0  0  0  0  0  0
  109.3826   69.0047   42.7762 C   0  0  0  0  0  0  0  0  0  0  0  0
  111.6315   65.0587   34.4242 C   0  0  0  0  0  0  0  0  0  0  0  0
  109.9425   67.9560   42.0466 C   0  0  0  0  0  0  0  0  0  0  0  0
  111.6547   70.6068   36.3418 C   0  0  0  0  0  0  0  0  0  0  0  0
  110.2331   70.6562   34.3889 C   0  0  0  0  0  0  0  0  0  0  0  0
  110.5540   67.5835   33.7358 C   0  0  0  0  0  0  0  0  0  0  0  0
  108.0004   69.0722   42.9519 C   0  0  0  0  0  0  0  0  0  0  0  0
  112.4847   71.5662   35.7619 C   0  0  0  0  0  0  0  0  0  0  0  0
  111.0631   71.6157   33.8090 C   0  0  0  0  0  0  0  0  0  0  0  0
  107.7381   67.0424   41.6682 C   0  0  0  0  0  0  0  0  0  0  0  0
  111.1530   65.9164   35.4349 C   0  0  0  0  0  0  0  0  0  0  0  0
  109.1202   66.9749   41.4926 C   0  0  0  0  0  0  0  0  0  0  0  0
  111.0620   65.8329   36.8509 C   0  0  0  0  0  0  0  0  0  0  0  0
  110.5290   70.1517   35.6552 C   0  0  0  0  0  0  0  0  0  0  0  0
  110.6243   67.1590   35.0676 C   0  0  0  0  0  0  0  0  0  0  0  0
  112.1889   72.0707   34.4955 C   0  0  0  0  0  0  0  0  0  0  0  0
  107.1782   68.0911   42.3979 C   0  0  0  0  0  0  0  0  0  0  0  0
  110.4867   67.0019   37.3021 C   0  0  0  0  0  0  0  0  0  0  0  0
  109.7101   65.8687   40.7233 C   0  0  0  0  0  0  0  0  0  0  0  0
  111.4551   64.7509   37.7936 C   0  0  0  0  0  0  0  0  0  0  0  0
  110.2009   67.3634   38.7150 C   0  0  0  0  0  0  0  0  0  0  0  0
  111.6010   65.3237   39.2139 C   0  0  0  0  0  0  0  0  0  0  0  0
  109.6331   69.1171   36.2809 C   0  0  0  0  0  0  0  0  0  0  0  0
  110.2284   67.7985   36.2236 N   0  0  0  0  0  0  0  0  0  0  0  0
  110.4530   66.1815   39.5787 N   0  0  0  0  0  0  0  0  0  0  0  0
  109.5074   64.7349   41.1555 O   0  0  0  0  0  0  0  0  0  0  0  0
  112.9981   73.0078   33.9304 O   0  0  0  0  0  0  0  0  0  0  0  0
  105.8296   68.1567   42.5692 O   0  0  0  0  0  0  0  0  0  0  0  0
  111.9386   64.8070   32.2953 H   0  0  0  0  0  0  0  0  0  0  0  0
  110.9954   67.0187   31.6955 H   0  0  0  0  0  0  0  0  0  0  0  0
  110.0310   69.7785   43.2130 H   0  0  0  0  0  0  0  0  0  0  0  0
  112.0515   64.0753   34.6822 H   0  0  0  0  0  0  0  0  0  0  0  0
  111.0324   67.9027   41.9081 H   0  0  0  0  0  0  0  0  0  0  0  0
  111.8879   70.2091   37.3405 H   0  0  0  0  0  0  0  0  0  0  0  0
  109.3453   70.2974   33.8476 H   0  0  0  0  0  0  0  0  0  0  0  0
  110.1344   68.5657   33.4726 H   0  0  0  0  0  0  0  0  0  0  0  0
  107.5589   69.8992   43.5274 H   0  0  0  0  0  0  0  0  0  0  0  0
  113.3725   71.9250   36.3033 H   0  0  0  0  0  0  0  0  0  0  0  0
  110.8298   72.0135   32.8103 H   0  0  0  0  0  0  0  0  0  0  0  0
  107.0897   66.2687   41.2313 H   0  0  0  0  0  0  0  0  0  0  0  0
  110.6824   63.9680   37.7933 H   0  0  0  0  0  0  0  0  0  0  0  0
  112.4169   64.3231   37.4743 H   0  0  0  0  0  0  0  0  0  0  0  0
  110.8560   68.1915   39.0232 H   0  0  0  0  0  0  0  0  0  0  0  0
  109.1511   67.6770   38.8126 H   0  0  0  0  0  0  0  0  0  0  0  0
  111.6650   64.4906   39.9294 H   0  0  0  0  0  0  0  0  0  0  0  0
  112.5120   65.9395   39.2432 H   0  0  0  0  0  0  0  0  0  0  0  0
  109.4575   69.3851   37.3332 H   0  0  0  0  0  0  0  0  0  0  0  0
  108.6867   69.0943   35.7207 H   0  0  0  0  0  0  0  0  0  0  0  0
  112.7883   73.3659   33.0316 H   0  0  0  0  0  0  0  0  0  0  0  0
  105.2462   67.4602   42.1759 H   0  0  0  0  0  0  0  0  0  0  0  0
  1  2  2  0
  1  4  1  0
  2  8  1  0
  3  5  2  0
  3  9  1  0
  4 13  2  0
  5 14  1  0
  6 10  2  0
  6 16  1  0
  7 11  1  0
  7 16  2  0
  8 17  2  0
  9 19  2  0
 10 18  1  0
 11 18  2  0
 12 14  2  0
 12 19  1  0
 13 15  1  0
 13 17  1  0
 14 21  1  0
 15 20  2  0
 15 22  1  0
 16 25  1  0
 17 26  1  0
 18 29  1  0
 19 30  1  0
 20 23  1  0
 20 26  1  0
 21 27  1  0
 21 28  2  0
 22 24  1  0
 23 27  1  0
 24 27  1  0
 25 26  1  0
  1 31  1  0
  2 32  1  0
  3 33  1  0
  4 34  1  0
  5 35  1  0
  6 36  1  0
  7 37  1  0
  8 38  1  0
  9 39  1  0
 10 40  1  0
 11 41  1  0
 12 42  1  0
 22 43  1  0
 22 44  1  0
 23 45  1  0
 23 46  1  0
 24 47  1  0
 24 48  1  0
 25 49  1  0
 25 50  1  0
 29 51  1  0
 30 52  1  0
M  END
>  <Name>  (219) 
CHEMBL307563

>  <Comment>  (219) 
 Schrodinger Suite 2021-4.

>  <s_m_entry_id>  (219) 
1235

>  <class_value>  (219) 
0

>  <s_m_Source_Path>  (219) 
C:\Users\vinicius\Desktop

>  <s_m_Source_File>  (219) 
Ligands_Saureus_o.sdf

>  <i_m_Source_File_Index>  (219) 
128

>  <r_lp_tautomer_probability>  (219) 
1

>  <r_epik_Ionization_Penalty>  (219) 
0.0049

>  <r_epik_State_Penalty>  (219) 
0

>  <i_epik_Tot_Q>  (219) 
0

>  <i_f3d_flags>  (219) 
0

>  <s_m_job_name>  (219) 
Saureus_o

>  <FRED Chemgauss4 score>  (219) 
-13.059720

>  <Set>  (219) 
test

>  <HBA count>  (219) 
4

>  <HBD count>  (219) 
2

>  <ExactMolWt>  (219) 
398.1630425640006

>  <NumRotatableBounds>  (219) 
5

>  <FractionCsp3>  (219) 
0.16

>  <TPSA>  (219) 
65.7

>  <LogP_WildmanCrippen>  (219) 
4.299300000000004

>  <General_Cluster>  (219) 
3

>  <Biological_Cluster>  (219) 
2

>  <Physicochemical_Cluster>  (219) 
1

>  <Structural_Cluster>  (219) 
4

$$$$
CHEMBL3687976
     RDKit          3D

 42 45  0  0  0  0  0  0  0  0999 V2000
  110.6577   66.7737   35.3344 C   0  0  0  0  0  0  0  0  0  0  0  0
  111.1565   68.6851   36.6532 C   0  0  0  0  0  0  0  0  0  0  0  0
  110.9522   67.3187   36.5781 C   0  0  0  0  0  0  0  0  0  0  0  0
  110.5574   67.6044   34.2174 C   0  0  0  0  0  0  0  0  0  0  0  0
  110.7743   68.9702   34.3958 C   0  0  0  0  0  0  0  0  0  0  0  0
  107.0454   65.7179   42.8347 C   0  0  0  0  0  0  0  0  0  0  0  0
  105.2747   65.5355   43.8888 C   0  0  0  0  0  0  0  0  0  0  0  0
  110.2551   69.4397   32.0304 C   0  0  0  0  0  0  0  0  0  0  0  0
  111.0570   66.4799   37.7581 C   0  0  0  0  0  0  0  0  0  0  0  0
  110.9580   66.9017   39.0408 C   0  0  0  0  0  0  0  0  0  0  0  0
  111.0813   66.0113   40.2091 C   0  0  0  0  0  0  0  0  0  0  0  0
  110.3364   67.0479   32.8435 C   0  0  0  0  0  0  0  0  0  0  0  0
  109.6294   68.0617   31.9579 C   0  0  0  0  0  0  0  0  0  0  0  0
  108.7128   66.6502   40.9252 C   0  0  0  0  0  0  0  0  0  0  0  0
  109.6218   65.2069   42.2024 C   0  0  0  0  0  0  0  0  0  0  0  0
  108.4796   66.2352   42.3983 C   0  0  0  0  0  0  0  0  0  0  0  0
  104.1159   65.6003   44.7897 C   0  0  0  0  0  0  0  0  0  0  0  0
  111.0826   69.5212   35.5937 N   0  0  0  0  0  0  0  0  0  0  0  0
  106.3765   66.2424   43.9022 N   0  0  0  0  0  0  0  0  0  0  0  0
  106.4155   64.7392   42.1783 N   0  0  0  0  0  0  0  0  0  0  0  0
  110.7026   69.8244   33.2788 N   0  0  0  0  0  0  0  0  0  0  0  0
  109.9870   65.9648   41.0227 N   0  0  0  0  0  0  0  0  0  0  0  0
  110.2680   70.1881   31.0532 O   0  0  0  0  0  0  0  0  0  0  0  0
  112.1191   65.3800   40.3916 O   0  0  0  0  0  0  0  0  0  0  0  0
  105.2164   64.6147   42.8913 O   0  0  0  0  0  0  0  0  0  0  0  0
  110.5039   65.6895   35.2304 H   0  0  0  0  0  0  0  0  0  0  0  0
  111.3938   69.1179   37.6362 H   0  0  0  0  0  0  0  0  0  0  0  0
  111.2324   65.4062   37.5957 H   0  0  0  0  0  0  0  0  0  0  0  0
  110.7749   67.9712   39.2217 H   0  0  0  0  0  0  0  0  0  0  0  0
  111.3089   66.7945   32.3963 H   0  0  0  0  0  0  0  0  0  0  0  0
  109.7064   66.1498   32.9239 H   0  0  0  0  0  0  0  0  0  0  0  0
  108.5791   68.1351   32.2765 H   0  0  0  0  0  0  0  0  0  0  0  0
  109.7162   67.7121   30.9186 H   0  0  0  0  0  0  0  0  0  0  0  0
  108.0066   66.2122   40.2045 H   0  0  0  0  0  0  0  0  0  0  0  0
  108.6339   67.6954   40.5915 H   0  0  0  0  0  0  0  0  0  0  0  0
  110.3793   65.2002   43.0000 H   0  0  0  0  0  0  0  0  0  0  0  0
  109.4351   64.1234   42.1681 H   0  0  0  0  0  0  0  0  0  0  0  0
  108.4964   66.9706   43.2162 H   0  0  0  0  0  0  0  0  0  0  0  0
  104.4616   65.5810   45.8338 H   0  0  0  0  0  0  0  0  0  0  0  0
  103.5594   66.5310   44.6049 H   0  0  0  0  0  0  0  0  0  0  0  0
  103.4591   64.7375   44.6049 H   0  0  0  0  0  0  0  0  0  0  0  0
  111.0041   70.8017   33.4011 H   0  0  0  0  0  0  0  0  0  0  0  0
  1  3  2  0
  1  4  1  0
  2  3  1  0
  2 18  2  0
  3  9  1  0
  4  5  2  0
  4 12  1  0
  5 18  1  0
  5 21  1  0
  6 16  1  0
  6 19  1  0
  6 20  2  0
  7 17  1  0
  7 19  2  0
  7 25  1  0
  8 13  1  0
  8 21  1  0
  8 23  2  0
  9 10  2  0
 10 11  1  0
 11 22  1  0
 11 24  2  0
 12 13  1  0
 14 16  1  0
 14 22  1  0
 15 16  1  0
 15 22  1  0
 20 25  1  0
  1 26  1  0
  2 27  1  0
  9 28  1  0
 10 29  1  0
 12 30  1  0
 12 31  1  0
 13 32  1  0
 13 33  1  0
 14 34  1  0
 14 35  1  0
 15 36  1  0
 15 37  1  0
 16 38  1  0
 17 39  1  0
 17 40  1  0
 17 41  1  0
 21 42  1  0
M  END
>  <Name>  (220) 
CHEMBL3687976

>  <Comment>  (220) 
 Schrodinger Suite 2021-4.

>  <s_m_entry_id>  (220) 
1123

>  <class_value>  (220) 
1

>  <s_m_Source_Path>  (220) 
C:\Users\vinicius\Desktop

>  <s_m_Source_File>  (220) 
Ligands_Saureus_o.sdf

>  <i_m_Source_File_Index>  (220) 
40

>  <r_lp_tautomer_probability>  (220) 
1

>  <r_epik_Ionization_Penalty>  (220) 
0.0002

>  <r_epik_State_Penalty>  (220) 
0

>  <i_epik_Tot_Q>  (220) 
0

>  <i_f3d_flags>  (220) 
0

>  <s_m_job_name>  (220) 
Saureus_o

>  <FRED Chemgauss4 score>  (220) 
-11.289233

>  <Set>  (220) 
test

>  <HBA count>  (220) 
6

>  <HBD count>  (220) 
1

>  <ExactMolWt>  (220) 
339.1331394040004

>  <NumRotatableBounds>  (220) 
4

>  <FractionCsp3>  (220) 
0.35294117647058826

>  <TPSA>  (220) 
101.22000000000001

>  <LogP_WildmanCrippen>  (220) 
1.2969199999999999

>  <General_Cluster>  (220) 
1

>  <Biological_Cluster>  (220) 
1

>  <Physicochemical_Cluster>  (220) 
4

>  <Structural_Cluster>  (220) 
2

$$$$
CHEMBL2178287
     RDKit          3D

 44 46  0  0  0  0  0  0  0  0999 V2000
  108.9782   67.4216   40.9638 C   0  0  0  0  0  0  0  0  0  0  0  0
  109.8822   67.5461   39.9089 C   0  0  0  0  0  0  0  0  0  0  0  0
  109.8494   65.2215   41.4509 C   0  0  0  0  0  0  0  0  0  0  0  0
  110.3148   65.9840   35.2105 C   0  0  0  0  0  0  0  0  0  0  0  0
  110.9204   68.1261   36.8919 C   0  0  0  0  0  0  0  0  0  0  0  0
  108.9618   66.2593   41.7349 C   0  0  0  0  0  0  0  0  0  0  0  0
  110.0996   67.2925   34.7781 C   0  0  0  0  0  0  0  0  0  0  0  0
  110.8328   65.7465   36.4837 C   0  0  0  0  0  0  0  0  0  0  0  0
  110.7698   66.5082   39.6250 C   0  0  0  0  0  0  0  0  0  0  0  0
  111.1357   66.8175   37.3244 C   0  0  0  0  0  0  0  0  0  0  0  0
  110.7534   65.3459   40.3960 C   0  0  0  0  0  0  0  0  0  0  0  0
  110.4024   68.3636   35.6188 C   0  0  0  0  0  0  0  0  0  0  0  0
  109.4422   68.5891   45.3608 C   0  0  0  0  0  0  0  0  0  0  0  0
  108.0080   66.1276   42.8474 C   0  0  0  0  0  0  0  0  0  0  0  0
  109.0297   68.1649   43.9581 C   0  0  0  0  0  0  0  0  0  0  0  0
  107.8423   66.9156   46.2860 C   0  0  0  0  0  0  0  0  0  0  0  0
  107.1006   66.9967   44.9710 C   0  0  0  0  0  0  0  0  0  0  0  0
  110.5915   67.3715   32.3208 C   0  0  0  0  0  0  0  0  0  0  0  0
  109.5439   67.5459   33.4172 C   0  0  0  0  0  0  0  0  0  0  0  0
  108.7796   68.0100   46.4188 N   0  0  0  0  0  0  0  0  0  0  0  0
  108.0731   67.0608   43.8877 N   0  0  0  0  0  0  0  0  0  0  0  0
  111.0251   64.5366   36.8647 O   0  0  0  0  0  1  0  0  0  0  0  0
  110.3016   69.4588   45.5189 O   0  0  0  0  0  0  0  0  0  0  0  0
  107.2098   65.1943   42.7741 O   0  0  0  0  0  0  0  0  0  0  0  0
  111.6519   66.6300   38.5955 O   0  0  0  0  0  0  0  0  0  0  0  0
  111.6039   64.3452   40.1288 F   0  0  0  0  0  0  0  0  0  0  0  0
  110.1979   69.6244   35.2123 F   0  0  0  0  0  0  0  0  0  0  0  0
  108.2782   68.2400   41.1877 H   0  0  0  0  0  0  0  0  0  0  0  0
  109.8952   68.4627   39.3009 H   0  0  0  0  0  0  0  0  0  0  0  0
  109.8365   64.3049   42.0589 H   0  0  0  0  0  0  0  0  0  0  0  0
  110.0760   65.1394   34.5475 H   0  0  0  0  0  0  0  0  0  0  0  0
  111.1591   68.9708   37.5549 H   0  0  0  0  0  0  0  0  0  0  0  0
  108.5787   69.0358   43.4600 H   0  0  0  0  0  0  0  0  0  0  0  0
  109.9466   67.8002   43.4720 H   0  0  0  0  0  0  0  0  0  0  0  0
  107.1171   66.9604   47.1118 H   0  0  0  0  0  0  0  0  0  0  0  0
  108.4012   65.9687   46.3163 H   0  0  0  0  0  0  0  0  0  0  0  0
  106.4677   66.1055   44.8477 H   0  0  0  0  0  0  0  0  0  0  0  0
  106.4635   67.8933   44.9554 H   0  0  0  0  0  0  0  0  0  0  0  0
  111.5780   67.2073   32.7790 H   0  0  0  0  0  0  0  0  0  0  0  0
  110.3283   66.5048   31.6966 H   0  0  0  0  0  0  0  0  0  0  0  0
  110.6232   68.2767   31.6966 H   0  0  0  0  0  0  0  0  0  0  0  0
  108.7202   66.8401   33.2346 H   0  0  0  0  0  0  0  0  0  0  0  0
  109.1947   68.5885   33.3856 H   0  0  0  0  0  0  0  0  0  0  0  0
  108.9621   68.3782   47.3633 H   0  0  0  0  0  0  0  0  0  0  0  0
  1  2  2  0
  1  6  1  0
  2  9  1  0
  3  6  2  0
  3 11  1  0
  4  7  2  0
  4  8  1  0
  5 10  1  0
  5 12  2  0
  6 14  1  0
  7 12  1  0
  7 19  1  0
  8 10  2  0
  8 22  1  0
  9 11  2  0
  9 25  1  0
 10 25  1  0
 11 26  1  0
 12 27  1  0
 13 15  1  0
 13 20  1  0
 13 23  2  0
 14 21  1  0
 14 24  2  0
 15 21  1  0
 16 17  1  0
 16 20  1  0
 17 21  1  0
 18 19  1  0
  1 28  1  0
  2 29  1  0
  3 30  1  0
  4 31  1  0
  5 32  1  0
 15 33  1  0
 15 34  1  0
 16 35  1  0
 16 36  1  0
 17 37  1  0
 17 38  1  0
 18 39  1  0
 18 40  1  0
 18 41  1  0
 19 42  1  0
 19 43  1  0
 20 44  1  0
M  CHG  1  22  -1
M  END
>  <Name>  (221) 
CHEMBL2178287

>  <Comment>  (221) 
 Schrodinger Suite 2021-4.

>  <s_m_entry_id>  (221) 
1081

>  <class_value>  (221) 
1

>  <s_m_Source_Path>  (221) 
C:\Users\vinicius\Desktop

>  <s_m_Source_File>  (221) 
Ligands_Saureus_o.sdf

>  <i_m_Source_File_Index>  (221) 
7

>  <r_lp_tautomer_probability>  (221) 
1

>  <r_epik_Ionization_Penalty>  (221) 
1.6592

>  <r_epik_State_Penalty>  (221) 
1.7619

>  <i_epik_Tot_Q>  (221) 
-1

>  <i_f3d_flags>  (221) 
0

>  <s_m_job_name>  (221) 
Saureus_o

>  <FRED Chemgauss4 score>  (221) 
-12.539669

>  <Set>  (221) 
test

>  <HBA count>  (221) 
4

>  <HBD count>  (221) 
1

>  <ExactMolWt>  (221) 
375.1161870439104

>  <NumRotatableBounds>  (221) 
5

>  <FractionCsp3>  (221) 
0.2631578947368421

>  <TPSA>  (221) 
81.7

>  <LogP_WildmanCrippen>  (221) 
1.9650999999999992

>  <General_Cluster>  (221) 
3

>  <Biological_Cluster>  (221) 
1

>  <Physicochemical_Cluster>  (221) 
4

>  <Structural_Cluster>  (221) 
4

$$$$
CHEMBL3322729
     RDKit          3D

 72 77  0  0  1  0  0  0  0  0999 V2000
  112.1117   71.9313   32.0103 C   0  0  0  0  0  0  0  0  0  0  0  0
  111.9346   72.6346   33.2045 C   0  0  0  0  0  0  0  0  0  0  0  0
  111.8291   70.5608   31.9295 C   0  0  0  0  0  0  0  0  0  0  0  0
  111.4700   71.9977   34.3591 C   0  0  0  0  0  0  0  0  0  0  0  0
  109.3742   64.8042   43.0284 C   0  0  0  0  0  0  0  0  0  0  0  0
  108.1061   66.3660   41.8042 C   0  0  0  0  0  0  0  0  0  0  0  0
  111.3605   69.9001   33.0785 C   0  0  0  0  0  0  0  0  0  0  0  0
  109.0775   65.3947   41.8090 C   0  0  0  0  0  0  0  0  0  0  0  0
  108.7128   65.1809   44.2172 C   0  0  0  0  0  0  0  0  0  0  0  0
  110.9746   68.5722   33.4007 C   0  0  0  0  0  0  0  0  0  0  0  0
  111.1975   70.6354   34.2481 C   0  0  0  0  0  0  0  0  0  0  0  0
  110.6068   68.5860   34.7262 C   0  0  0  0  0  0  0  0  0  0  0  0
  107.7700   66.2046   44.1124 C   0  0  0  0  0  0  0  0  0  0  0  0
  107.1211   66.6294   46.5344 C   0  0  0  0  0  0  0  0  0  0  0  0
  109.7563   64.9968   40.5904 C   0  0  0  0  0  0  0  0  0  0  0  0
  109.8369   65.7276   39.4528 C   0  0  0  0  0  0  0  0  0  0  0  0
  110.5316   65.2755   38.2338 C   0  0  0  0  0  0  0  0  0  0  0  0
  109.1195   64.4085   45.4483 C   0  0  0  0  0  0  0  0  0  0  0  0
  108.2781   65.8838   47.1336 C   0  0  0  0  0  0  0  0  0  0  0  0
  109.9012   67.4675   37.0814 C   0  0  0  0  0  0  0  0  0  0  0  0
  111.0886   66.1835   35.8641 C   0  0  0  0  0  0  0  0  0  0  0  0
  105.0900   62.8111   48.6054 C   0  0  0  0  0  0  0  0  0  0  0  0
  106.6305   61.2833   47.3913 C   0  0  0  0  0  0  0  0  0  0  0  0
  103.9699   62.2712   47.7324 C   0  0  0  0  0  0  0  0  0  0  0  0
  105.4307   60.8218   46.5814 C   0  0  0  0  0  0  0  0  0  0  0  0
  110.0965   67.3317   35.5516 C   0  0  0  0  0  0  0  0  0  0  0  0
  110.9708   67.4100   32.4909 C   0  0  0  0  0  0  0  0  0  0  0  0
  108.6878   63.5779   47.6531 C   0  0  0  0  0  0  0  0  0  0  0  0
  107.5469   63.2672   48.6035 C   0  0  0  0  0  0  0  0  0  0  0  0
  107.4545   66.7724   42.9129 N   0  0  0  0  0  0  0  0  0  0  0  0
  107.0268   66.7571   45.1755 N   0  0  0  0  0  0  0  0  0  0  0  0
  110.5039   66.1530   37.1895 N   0  0  0  0  0  0  0  0  0  0  0  0
  108.2458   64.5207   46.6200 N   0  0  0  0  0  0  0  0  0  0  0  0
  106.3850   62.7064   47.8348 N   0  0  0  0  0  4  0  0  0  0  0  0
  106.3003   67.1789   47.2778 O   0  0  0  0  0  0  0  0  0  0  0  0
  111.0787   64.1759   38.2125 O   0  0  0  0  0  0  0  0  0  0  0  0
  110.7387   69.8328   35.2495 O   0  0  0  0  0  0  0  0  0  0  0  0
  104.2351   60.9189   47.3569 O   0  0  0  0  0  0  0  0  0  0  0  0
  112.4788   72.4616   31.1192 H   0  0  0  0  0  0  0  0  0  0  0  0
  112.1651   73.7097   33.2369 H   0  0  0  0  0  0  0  0  0  0  0  0
  111.9711   70.0133   30.9861 H   0  0  0  0  0  0  0  0  0  0  0  0
  111.3272   72.5424   35.3041 H   0  0  0  0  0  0  0  0  0  0  0  0
  110.1457   64.0212   43.0703 H   0  0  0  0  0  0  0  0  0  0  0  0
  107.8458   66.8374   40.8450 H   0  0  0  0  0  0  0  0  0  0  0  0
  110.2497   64.0137   40.5901 H   0  0  0  0  0  0  0  0  0  0  0  0
  109.3556   66.7166   39.4377 H   0  0  0  0  0  0  0  0  0  0  0  0
  109.1698   63.3450   45.1719 H   0  0  0  0  0  0  0  0  0  0  0  0
  110.0770   64.8506   45.7610 H   0  0  0  0  0  0  0  0  0  0  0  0
  109.2234   66.3686   46.8482 H   0  0  0  0  0  0  0  0  0  0  0  0
  108.2059   65.8818   48.2312 H   0  0  0  0  0  0  0  0  0  0  0  0
  110.4764   68.2794   37.5503 H   0  0  0  0  0  0  0  0  0  0  0  0
  108.9241   67.7025   37.5286 H   0  0  0  0  0  0  0  0  0  0  0  0
  110.9382   65.2690   35.2717 H   0  0  0  0  0  0  0  0  0  0  0  0
  112.1721   66.2857   35.7040 H   0  0  0  0  0  0  0  0  0  0  0  0
  104.8911   63.8633   48.8571 H   0  0  0  0  0  0  0  0  0  0  0  0
  105.1563   62.2316   49.5380 H   0  0  0  0  0  0  0  0  0  0  0  0
  106.7562   60.6359   48.2717 H   0  0  0  0  0  0  0  0  0  0  0  0
  107.5435   61.2291   46.7802 H   0  0  0  0  0  0  0  0  0  0  0  0
  103.0234   62.3126   48.2914 H   0  0  0  0  0  0  0  0  0  0  0  0
  103.9006   62.8857   46.8227 H   0  0  0  0  0  0  0  0  0  0  0  0
  105.3337   61.4538   45.6863 H   0  0  0  0  0  0  0  0  0  0  0  0
  105.5811   59.7717   46.2904 H   0  0  0  0  0  0  0  0  0  0  0  0
  109.2448   67.1916   34.8697 H   0  0  0  0  0  0  0  0  0  0  0  0
  110.9678   66.4820   33.0815 H   0  0  0  0  0  0  0  0  0  0  0  0
  110.0728   67.4439   31.8566 H   0  0  0  0  0  0  0  0  0  0  0  0
  111.8690   67.4380   31.8566 H   0  0  0  0  0  0  0  0  0  0  0  0
  109.5203   64.0225   48.2182 H   0  0  0  0  0  0  0  0  0  0  0  0
  109.0162   62.6455   47.1705 H   0  0  0  0  0  0  0  0  0  0  0  0
  107.8821   62.5305   49.3484 H   0  0  0  0  0  0  0  0  0  0  0  0
  107.2348   64.1914   49.1119 H   0  0  0  0  0  0  0  0  0  0  0  0
  106.2641   67.3780   44.8694 H   0  0  0  0  0  0  0  0  0  0  0  0
  106.2934   63.2864   46.9886 H   0  0  0  0  0  0  0  0  0  0  0  0
  1  2  2  0
  1  3  1  0
  2  4  1  0
  3  7  2  0
  4 11  2  0
  5  8  2  0
  5  9  1  0
  6  8  1  0
  6 30  2  0
  7 10  1  0
  7 11  1  0
  8 15  1  0
  9 13  2  0
  9 18  1  0
 10 12  2  0
 10 27  1  0
 11 37  1  0
 12 26  1  0
 12 37  1  0
 13 30  1  0
 13 31  1  0
 14 19  1  0
 14 31  1  0
 14 35  2  0
 15 16  2  0
 16 17  1  0
 17 32  1  0
 17 36  2  0
 18 33  1  0
 19 33  1  0
 20 26  1  0
 20 32  1  0
 21 26  1  0
 21 32  1  0
 22 24  1  0
 22 34  1  0
 23 25  1  0
 23 34  1  0
 24 38  1  0
 25 38  1  0
 28 29  1  0
 28 33  1  0
 29 34  1  0
  1 39  1  0
  2 40  1  0
  3 41  1  0
  4 42  1  0
  5 43  1  0
  6 44  1  0
 15 45  1  0
 16 46  1  0
 18 47  1  0
 18 48  1  0
 19 49  1  0
 19 50  1  0
 20 51  1  0
 20 52  1  0
 21 53  1  0
 21 54  1  0
 22 55  1  0
 22 56  1  0
 23 57  1  0
 23 58  1  0
 24 59  1  0
 24 60  1  0
 25 61  1  0
 25 62  1  0
 26 63  1  0
 27 64  1  0
 27 65  1  0
 27 66  1  0
 28 67  1  0
 28 68  1  0
 29 69  1  0
 29 70  1  0
 31 71  1  0
 34 72  1  0
M  CHG  1  34   1
M  END
>  <Name>  (222) 
CHEMBL3322729

>  <Comment>  (222) 
 Schrodinger Suite 2021-4.

>  <s_m_entry_id>  (222) 
1153

>  <class_value>  (222) 
1

>  <s_m_Source_Path>  (222) 
C:\Users\vinicius\Desktop

>  <s_m_Source_File>  (222) 
Ligands_Saureus_o.sdf

>  <i_m_Source_File_Index>  (222) 
62

>  <r_epik_Ionization_Penalty>  (222) 
0.9492

>  <r_epik_State_Penalty>  (222) 
1.5399

>  <i_epik_Tot_Q>  (222) 
1

>  <i_f3d_flags>  (222) 
0

>  <s_m_job_name>  (222) 
Saureus_o

>  <FRED Chemgauss4 score>  (222) 
-8.939209

>  <Set>  (222) 
test

>  <HBA count>  (222) 
6

>  <HBD count>  (222) 
2

>  <ExactMolWt>  (222) 
516.260530988091

>  <NumRotatableBounds>  (222) 
7

>  <FractionCsp3>  (222) 
0.41379310344827586

>  <TPSA>  (222) 
92.35000000000001

>  <LogP_WildmanCrippen>  (222) 
1.444620000000002

>  <General_Cluster>  (222) 
1

>  <Biological_Cluster>  (222) 
1

>  <Physicochemical_Cluster>  (222) 
4

>  <Structural_Cluster>  (222) 
2

$$$$
CHEMBL3621747
     RDKit          3D

 37 39  0  0  0  0  0  0  0  0999 V2000
  110.2183   69.5446   32.2928 C   0  0  0  0  0  0  0  0  0  0  0  0
  110.3524   68.1961   32.6230 C   0  0  0  0  0  0  0  0  0  0  0  0
  110.1980   70.5104   33.2991 C   0  0  0  0  0  0  0  0  0  0  0  0
  107.1007   66.6791   44.1292 C   0  0  0  0  0  0  0  0  0  0  0  0
  110.4660   67.8133   33.9595 C   0  0  0  0  0  0  0  0  0  0  0  0
  110.3115   70.1276   34.6356 C   0  0  0  0  0  0  0  0  0  0  0  0
  107.4882   65.4294   43.6459 C   0  0  0  0  0  0  0  0  0  0  0  0
  107.9387   67.7817   43.9630 C   0  0  0  0  0  0  0  0  0  0  0  0
  110.4456   68.7790   34.9658 C   0  0  0  0  0  0  0  0  0  0  0  0
  109.5520   66.3847   42.8303 C   0  0  0  0  0  0  0  0  0  0  0  0
  108.7138   65.2822   42.9965 C   0  0  0  0  0  0  0  0  0  0  0  0
  109.1644   67.6345   43.3135 C   0  0  0  0  0  0  0  0  0  0  0  0
  111.9962   66.4900   38.5932 C   0  0  0  0  0  0  0  0  0  0  0  0
  109.6665   66.7278   40.1311 C   0  0  0  0  0  0  0  0  0  0  0  0
  110.7664   66.4226   40.8315 C   0  0  0  0  0  0  0  0  0  0  0  0
  110.8152   66.7933   38.0220 C   0  0  0  0  0  0  0  0  0  0  0  0
  112.0473   66.2800   40.0729 C   0  0  0  0  0  0  0  0  0  0  0  0
  110.6871   67.0179   36.5457 C   0  0  0  0  0  0  0  0  0  0  0  0
  109.6665   66.9111   38.7760 N   0  0  0  0  0  0  0  0  0  0  0  0
  113.1009   66.0022   40.6352 O   0  0  0  0  0  0  0  0  0  0  0  0
  110.7543   66.2408   42.1923 O   0  0  0  0  0  0  0  0  0  0  0  0
  110.5557   68.4026   36.2817 O   0  0  0  0  0  0  0  0  0  0  0  0
  109.1636   63.7224   42.4111 Cl  0  0  0  0  0  0  0  0  0  0  0  0
  110.1796   69.0174   43.1254 Cl  0  0  0  0  0  0  0  0  0  0  0  0
  110.1286   69.8465   31.2388 H   0  0  0  0  0  0  0  0  0  0  0  0
  110.3686   67.4345   31.8295 H   0  0  0  0  0  0  0  0  0  0  0  0
  110.0925   71.5739   33.0387 H   0  0  0  0  0  0  0  0  0  0  0  0
  106.1342   66.7951   44.6414 H   0  0  0  0  0  0  0  0  0  0  0  0
  110.5717   66.7498   34.2199 H   0  0  0  0  0  0  0  0  0  0  0  0
  110.2953   70.8892   35.4292 H   0  0  0  0  0  0  0  0  0  0  0  0
  106.8272   64.5599   43.7769 H   0  0  0  0  0  0  0  0  0  0  0  0
  107.6330   68.7673   44.3441 H   0  0  0  0  0  0  0  0  0  0  0  0
  112.9066   66.3984   37.9827 H   0  0  0  0  0  0  0  0  0  0  0  0
  108.7154   66.8365   40.6730 H   0  0  0  0  0  0  0  0  0  0  0  0
  111.5839   66.6328   36.0384 H   0  0  0  0  0  0  0  0  0  0  0  0
  109.7962   66.4907   36.1737 H   0  0  0  0  0  0  0  0  0  0  0  0
  108.7813   67.1443   38.3039 H   0  0  0  0  0  0  0  0  0  0  0  0
  1  2  2  0
  1  3  1  0
  2  5  1  0
  3  6  2  0
  4  7  2  0
  4  8  1  0
  5  9  2  0
  6  9  1  0
  7 11  1  0
  8 12  2  0
  9 22  1  0
 10 11  2  0
 10 12  1  0
 10 21  1  0
 11 23  1  0
 12 24  1  0
 13 16  2  0
 13 17  1  0
 14 15  2  0
 14 19  1  0
 15 17  1  0
 15 21  1  0
 16 18  1  0
 16 19  1  0
 17 20  2  0
 18 22  1  0
  1 25  1  0
  2 26  1  0
  3 27  1  0
  4 28  1  0
  5 29  1  0
  6 30  1  0
  7 31  1  0
  8 32  1  0
 13 33  1  0
 14 34  1  0
 18 35  1  0
 18 36  1  0
 19 37  1  0
M  END
>  <Name>  (223) 
CHEMBL3621747

>  <Comment>  (223) 
 Schrodinger Suite 2021-4.

>  <s_m_entry_id>  (223) 
1246

>  <class_value>  (223) 
0

>  <s_m_Source_Path>  (223) 
C:\Users\vinicius\Desktop

>  <s_m_Source_File>  (223) 
Ligands_Saureus_o.sdf

>  <i_m_Source_File_Index>  (223) 
139

>  <r_lp_tautomer_probability>  (223) 
0.972255101557691

>  <r_epik_Ionization_Penalty>  (223) 
0.0259

>  <r_epik_State_Penalty>  (223) 
0.0641

>  <i_epik_Tot_Q>  (223) 
0

>  <i_f3d_flags>  (223) 
0

>  <s_m_job_name>  (223) 
Saureus_o

>  <FRED Chemgauss4 score>  (223) 
-12.761900

>  <Set>  (223) 
test

>  <HBA count>  (223) 
3

>  <HBD count>  (223) 
1

>  <ExactMolWt>  (223) 
361.0272486360003

>  <NumRotatableBounds>  (223) 
5

>  <FractionCsp3>  (223) 
0.05555555555555555

>  <TPSA>  (223) 
51.32000000000001

>  <LogP_WildmanCrippen>  (223) 
5.053000000000003

>  <General_Cluster>  (223) 
4

>  <Biological_Cluster>  (223) 
2

>  <Physicochemical_Cluster>  (223) 
3

>  <Structural_Cluster>  (223) 
1

$$$$
CHEMBL4217928
     RDKit          3D

 46 48  0  0  1  0  0  0  0  0999 V2000
  111.0882   71.4553   31.8881 C   0  0  0  0  0  0  0  0  0  0  0  0
  112.2843   71.4737   32.5990 C   0  0  0  0  0  0  0  0  0  0  0  0
  112.0968   65.7648   40.1088 C   0  0  0  0  0  0  0  0  0  0  0  0
  110.2172   70.3785   32.0238 C   0  0  0  0  0  0  0  0  0  0  0  0
  111.7193   66.1171   41.3998 C   0  0  0  0  0  0  0  0  0  0  0  0
  110.3216   67.1119   39.2779 C   0  0  0  0  0  0  0  0  0  0  0  0
  112.5818   70.4062   33.4342 C   0  0  0  0  0  0  0  0  0  0  0  0
  111.3898   66.2673   39.0221 C   0  0  0  0  0  0  0  0  0  0  0  0
  110.5670   69.3387   32.8734 C   0  0  0  0  0  0  0  0  0  0  0  0
  110.6365   66.9686   41.5491 C   0  0  0  0  0  0  0  0  0  0  0  0
  111.7647   65.9128   37.6421 C   0  0  0  0  0  0  0  0  0  0  0  0
  110.9592   66.0164   36.5745 C   0  0  0  0  0  0  0  0  0  0  0  0
  111.3779   65.6389   35.2100 C   0  0  0  0  0  0  0  0  0  0  0  0
  109.2172   68.1527   43.2543 C   0  0  0  0  0  0  0  0  0  0  0  0
  109.9782   67.0209   32.0543 C   0  0  0  0  0  0  0  0  0  0  0  0
  111.0262   66.1522   32.7387 C   0  0  0  0  0  0  0  0  0  0  0  0
  109.8192   67.3907   34.4114 C   0  0  0  0  0  0  0  0  0  0  0  0
  109.6739   68.1279   33.0756 C   0  0  1  0  0  0  0  0  0  0  0  0
  109.1454   68.2707   44.7561 C   0  0  0  0  0  0  0  0  0  0  0  0
  109.9253   67.4767   40.5178 N   0  0  0  0  0  0  0  0  0  0  0  0
  111.7252   69.3819   33.5461 N   0  0  0  0  0  4  0  0  0  0  0  0
  110.7921   66.3325   34.1684 N   0  0  0  0  0  0  0  0  0  0  0  0
  110.2644   67.3176   42.8529 N   0  0  0  0  0  0  0  0  0  0  0  0
  112.2079   64.7408   35.0724 O   0  0  0  0  0  0  0  0  0  0  0  0
  108.4161   68.7453   42.5387 O   0  0  0  0  0  0  0  0  0  0  0  0
  110.8316   72.2906   31.2199 H   0  0  0  0  0  0  0  0  0  0  0  0
  112.9813   72.3190   32.5007 H   0  0  0  0  0  0  0  0  0  0  0  0
  112.9514   65.0912   39.9478 H   0  0  0  0  0  0  0  0  0  0  0  0
  109.2685   70.3521   31.4676 H   0  0  0  0  0  0  0  0  0  0  0  0
  112.2631   65.7320   42.2750 H   0  0  0  0  0  0  0  0  0  0  0  0
  109.7615   67.5102   38.4190 H   0  0  0  0  0  0  0  0  0  0  0  0
  113.5220   70.4009   34.0051 H   0  0  0  0  0  0  0  0  0  0  0  0
  112.7837   65.5340   37.4743 H   0  0  0  0  0  0  0  0  0  0  0  0
  109.9391   66.4005   36.7226 H   0  0  0  0  0  0  0  0  0  0  0  0
  110.3759   67.4494   31.1225 H   0  0  0  0  0  0  0  0  0  0  0  0
  109.0801   66.4514   31.7729 H   0  0  0  0  0  0  0  0  0  0  0  0
  110.8979   65.0969   32.4561 H   0  0  0  0  0  0  0  0  0  0  0  0
  112.0493   66.4340   32.4490 H   0  0  0  0  0  0  0  0  0  0  0  0
  110.1832   68.0760   35.1911 H   0  0  0  0  0  0  0  0  0  0  0  0
  108.8574   66.9882   34.7621 H   0  0  0  0  0  0  0  0  0  0  0  0
  108.6768   68.5849   32.9922 H   0  0  0  0  0  0  0  0  0  0  0  0
  109.6648   67.4171   45.2162 H   0  0  0  0  0  0  0  0  0  0  0  0
  109.6268   69.2074   45.0737 H   0  0  0  0  0  0  0  0  0  0  0  0
  108.0923   68.2736   45.0737 H   0  0  0  0  0  0  0  0  0  0  0  0
  111.9656   68.5997   34.1716 H   0  0  0  0  0  0  0  0  0  0  0  0
  110.8317   66.9090   43.6093 H   0  0  0  0  0  0  0  0  0  0  0  0
  1  2  2  0
  1  4  1  0
  2  7  1  0
  3  5  2  0
  3  8  1  0
  4  9  2  0
  5 10  1  0
  6  8  2  0
  6 20  1  0
  7 21  2  0
  8 11  1  0
  9 18  1  0
  9 21  1  0
 10 20  2  0
 10 23  1  0
 11 12  2  0
 12 13  1  0
 13 22  1  0
 13 24  2  0
 14 19  1  0
 14 23  1  0
 14 25  2  0
 15 16  1  0
 15 18  1  0
 16 22  1  0
 17 18  1  0
 17 22  1  0
  1 26  1  0
  2 27  1  0
  3 28  1  0
  4 29  1  0
  5 30  1  0
  6 31  1  0
  7 32  1  0
 11 33  1  0
 12 34  1  0
 15 35  1  0
 15 36  1  0
 16 37  1  0
 16 38  1  0
 17 39  1  0
 17 40  1  0
 18 41  1  6
 19 42  1  0
 19 43  1  0
 19 44  1  0
 21 45  1  0
 23 46  1  0
M  CHG  1  21   1
M  END
>  <Name>  (224) 
CHEMBL4217928

>  <Comment>  (224) 
 Schrodinger Suite 2021-4.

>  <s_m_entry_id>  (224) 
1493

>  <s_m_Source_Path>  (224) 
C:\Users\vinicius\Desktop

>  <s_m_Source_File>  (224) 
Ligands_Saureus_failomega.smi

>  <i_m_Source_File_Index>  (224) 
32

>  <r_epik_Ionization_Penalty>  (224) 
2.2184

>  <r_epik_State_Penalty>  (224) 
2.3631

>  <i_epik_Tot_Q>  (224) 
1

>  <i_f3d_flags>  (224) 
0

>  <s_m_job_name>  (224) 
Saureus_fail

>  <class_value>  (224) 
0

>  <FRED Chemgauss4 score>  (224) 
-12.910843

>  <Set>  (224) 
test

>  <HBA count>  (224) 
3

>  <HBD count>  (224) 
1

>  <ExactMolWt>  (224) 
337.1659023320906

>  <NumRotatableBounds>  (224) 
5

>  <FractionCsp3>  (224) 
0.2631578947368421

>  <TPSA>  (224) 
76.44

>  <LogP_WildmanCrippen>  (224) 
1.8834

>  <General_Cluster>  (224) 
5

>  <Biological_Cluster>  (224) 
2

>  <Physicochemical_Cluster>  (224) 
4

>  <Structural_Cluster>  (224) 
3

$$$$
CHEMBL1183966
     RDKit          3D

 54 57  0  0  1  0  0  0  0  0999 V2000
  109.8717   69.3479   32.3134 C   0  0  0  0  0  0  0  0  0  0  0  0
  110.1646   70.2869   33.3005 C   0  0  0  0  0  0  0  0  0  0  0  0
  109.9676   67.9769   32.5780 C   0  0  0  0  0  0  0  0  0  0  0  0
  109.0014   67.0551   40.3374 C   0  0  0  0  0  0  0  0  0  0  0  0
  110.5616   69.8878   34.5799 C   0  0  0  0  0  0  0  0  0  0  0  0
  108.1201   67.1834   41.4114 C   0  0  0  0  0  0  0  0  0  0  0  0
  110.5651   66.2778   34.4649 C   0  0  0  0  0  0  0  0  0  0  0  0
  110.1494   65.3018   41.5138 C   0  0  0  0  0  0  0  0  0  0  0  0
  110.3659   67.5506   33.8606 C   0  0  0  0  0  0  0  0  0  0  0  0
  110.0196   66.1143   40.3902 C   0  0  0  0  0  0  0  0  0  0  0  0
  109.2610   65.4148   42.6010 C   0  0  0  0  0  0  0  0  0  0  0  0
  110.6531   68.5140   34.8300 C   0  0  0  0  0  0  0  0  0  0  0  0
  108.2311   66.3804   42.5653 C   0  0  0  0  0  0  0  0  0  0  0  0
  110.9623   66.4891   35.7651 C   0  0  0  0  0  0  0  0  0  0  0  0
  107.1575   64.4523   44.7403 C   0  0  0  0  0  0  0  0  0  0  0  0
  110.9451   65.9764   39.2774 C   0  0  0  0  0  0  0  0  0  0  0  0
  106.1787   66.5609   45.6441 C   0  0  0  0  0  0  0  0  0  0  0  0
  109.4713   64.4948   43.7798 C   0  0  0  0  0  0  0  0  0  0  0  0
  107.3401   65.9528   44.8828 C   0  0  2  0  0  0  0  0  0  0  0  0
  111.3877   68.4728   37.2244 C   0  0  0  0  0  0  0  0  0  0  0  0
  108.1575   62.3575   43.9344 C   0  0  0  0  0  0  0  0  0  0  0  0
  109.0208   65.4056   37.7763 C   0  0  0  0  0  0  0  0  0  0  0  0
  111.3037   65.4969   36.8389 C   0  0  0  0  0  0  0  0  0  0  0  0
  111.0122   67.8409   35.9760 N   0  0  0  0  0  0  0  0  0  0  0  0
  107.3035   66.5838   43.5805 N   0  0  0  0  0  0  0  0  0  0  0  0
  108.2459   63.7928   44.1628 N   0  0  0  0  0  0  0  0  0  0  0  0
  110.4394   65.6379   38.0087 N   0  0  0  0  0  0  0  0  0  0  0  0
  105.6577   65.8148   46.5187 O   0  0  0  0  0  1  0  0  0  0  0  0
  106.1259   63.8883   45.1078 O   0  0  0  0  0  0  0  0  0  0  0  0
  112.1432   66.1814   39.5141 O   0  0  0  0  0  0  0  0  0  0  0  0
  105.8815   67.7402   45.3034 O   0  0  0  0  0  0  0  0  0  0  0  0
  109.5615   69.6882   31.3144 H   0  0  0  0  0  0  0  0  0  0  0  0
  110.0821   71.3591   33.0692 H   0  0  0  0  0  0  0  0  0  0  0  0
  109.7349   67.2411   31.7942 H   0  0  0  0  0  0  0  0  0  0  0  0
  108.8893   67.6978   39.4517 H   0  0  0  0  0  0  0  0  0  0  0  0
  110.7936   70.6264   35.3614 H   0  0  0  0  0  0  0  0  0  0  0  0
  107.3160   67.9320   41.3565 H   0  0  0  0  0  0  0  0  0  0  0  0
  110.4264   65.3004   33.9796 H   0  0  0  0  0  0  0  0  0  0  0  0
  110.9597   64.5589   41.5529 H   0  0  0  0  0  0  0  0  0  0  0  0
  110.2372   63.7508   43.5154 H   0  0  0  0  0  0  0  0  0  0  0  0
  109.7872   65.1107   44.6348 H   0  0  0  0  0  0  0  0  0  0  0  0
  108.2983   66.1118   45.3992 H   0  0  0  0  0  0  0  0  0  0  0  0
  111.0262   67.8645   38.0666 H   0  0  0  0  0  0  0  0  0  0  0  0
  112.4831   68.5581   37.2773 H   0  0  0  0  0  0  0  0  0  0  0  0
  110.9389   69.4757   37.2773 H   0  0  0  0  0  0  0  0  0  0  0  0
  108.1252   61.8337   44.9011 H   0  0  0  0  0  0  0  0  0  0  0  0
  107.2438   62.1325   43.3648 H   0  0  0  0  0  0  0  0  0  0  0  0
  109.0367   62.0220   43.3648 H   0  0  0  0  0  0  0  0  0  0  0  0
  108.5003   65.3204   38.7416 H   0  0  0  0  0  0  0  0  0  0  0  0
  108.6001   66.2468   37.2059 H   0  0  0  0  0  0  0  0  0  0  0  0
  108.8904   64.4741   37.2059 H   0  0  0  0  0  0  0  0  0  0  0  0
  111.1893   64.4809   36.4331 H   0  0  0  0  0  0  0  0  0  0  0  0
  112.3399   65.6836   37.1573 H   0  0  0  0  0  0  0  0  0  0  0  0
  106.5285   67.2353   43.3910 H   0  0  0  0  0  0  0  0  0  0  0  0
  1  2  2  0
  1  3  1  0
  2  5  1  0
  3  9  2  0
  4  6  2  0
  4 10  1  0
  5 12  2  0
  6 13  1  0
  7  9  1  0
  7 14  2  0
  8 10  2  0
  8 11  1  0
  9 12  1  0
 10 16  1  0
 11 13  2  0
 11 18  1  0
 12 24  1  0
 13 25  1  0
 14 23  1  0
 14 24  1  0
 15 19  1  0
 15 26  1  0
 15 29  2  0
 16 27  1  0
 16 30  2  0
 17 19  1  0
 17 28  1  0
 17 31  2  0
 18 26  1  0
 19 25  1  0
 20 24  1  0
 21 26  1  0
 22 27  1  0
 23 27  1  0
  1 32  1  0
  2 33  1  0
  3 34  1  0
  4 35  1  0
  5 36  1  0
  6 37  1  0
  7 38  1  0
  8 39  1  0
 18 40  1  0
 18 41  1  0
 19 42  1  1
 20 43  1  0
 20 44  1  0
 20 45  1  0
 21 46  1  0
 21 47  1  0
 21 48  1  0
 22 49  1  0
 22 50  1  0
 22 51  1  0
 23 52  1  0
 23 53  1  0
 25 54  1  0
M  CHG  1  28  -1
M  END
>  <Name>  (225) 
CHEMBL1183966

>  <Comment>  (225) 
 Schrodinger Suite 2021-4.

>  <s_m_entry_id>  (225) 
1294

>  <class_value>  (225) 
0

>  <s_m_Source_Path>  (225) 
C:\Users\vinicius\Desktop

>  <s_m_Source_File>  (225) 
Ligands_Saureus_o.sdf

>  <i_m_Source_File_Index>  (225) 
174

>  <r_lp_tautomer_probability>  (225) 
1

>  <r_epik_Ionization_Penalty>  (225) 
0.0001

>  <r_epik_State_Penalty>  (225) 
0

>  <i_epik_Tot_Q>  (225) 
-1

>  <i_f3d_flags>  (225) 
0

>  <s_m_job_name>  (225) 
Saureus_o

>  <FRED Chemgauss4 score>  (225) 
-10.776890

>  <Set>  (225) 
test

>  <HBA count>  (225) 
6

>  <HBD count>  (225) 
1

>  <ExactMolWt>  (225) 
419.17247879591065

>  <NumRotatableBounds>  (225) 
7

>  <FractionCsp3>  (225) 
0.2608695652173913

>  <TPSA>  (225) 
97.71000000000001

>  <LogP_WildmanCrippen>  (225) 
0.9528999999999994

>  <General_Cluster>  (225) 
5

>  <Biological_Cluster>  (225) 
2

>  <Physicochemical_Cluster>  (225) 
4

>  <Structural_Cluster>  (225) 
4

$$$$
CHEMBL3322715
     RDKit          3D

 49 53  0  0  0  0  0  0  0  0999 V2000
  110.4041   74.5426   33.9538 C   0  0  0  0  0  0  0  0  0  0  0  0
  110.6212   74.8991   32.6274 C   0  0  0  0  0  0  0  0  0  0  0  0
  110.5577   73.2161   34.3672 C   0  0  0  0  0  0  0  0  0  0  0  0
  110.9965   73.9428   31.6805 C   0  0  0  0  0  0  0  0  0  0  0  0
  109.7727   66.9487   39.6876 C   0  0  0  0  0  0  0  0  0  0  0  0
  111.8981   66.1413   40.3751 C   0  0  0  0  0  0  0  0  0  0  0  0
  110.9612   66.3029   39.3698 C   0  0  0  0  0  0  0  0  0  0  0  0
  109.5495   67.3918   40.9920 C   0  0  0  0  0  0  0  0  0  0  0  0
  110.9363   72.2299   33.4307 C   0  0  0  0  0  0  0  0  0  0  0  0
  111.1489   72.6123   32.1027 C   0  0  0  0  0  0  0  0  0  0  0  0
  110.5520   67.1766   41.9371 C   0  0  0  0  0  0  0  0  0  0  0  0
  111.4730   70.2622   32.5899 C   0  0  0  0  0  0  0  0  0  0  0  0
  109.1667   68.1368   43.7382 C   0  0  0  0  0  0  0  0  0  0  0  0
  111.2183   65.8263   38.0231 C   0  0  0  0  0  0  0  0  0  0  0  0
  110.5942   66.2523   36.8996 C   0  0  0  0  0  0  0  0  0  0  0  0
  110.8837   65.7299   35.5519 C   0  0  0  0  0  0  0  0  0  0  0  0
  108.3251   68.1759   41.3552 C   0  0  0  0  0  0  0  0  0  0  0  0
  107.9716   67.9769   42.8206 C   0  0  0  0  0  0  0  0  0  0  0  0
  110.2656   67.9993   34.4575 C   0  0  0  0  0  0  0  0  0  0  0  0
  110.8556   66.4384   33.1004 C   0  0  0  0  0  0  0  0  0  0  0  0
  110.5798   67.9442   32.9520 C   0  0  0  0  0  0  0  0  0  0  0  0
  111.7613   68.7849   32.4969 C   0  0  0  0  0  0  0  0  0  0  0  0
  111.7262   66.5683   41.6461 N   0  0  0  0  0  0  0  0  0  0  0  0
  111.1256   70.8811   33.6939 N   0  0  0  0  0  0  0  0  0  0  0  0
  110.3592   67.6369   43.2537 N   0  0  0  0  0  0  0  0  0  0  0  0
  110.6963   66.6172   34.5310 N   0  0  0  0  0  0  0  0  0  0  0  0
  109.0440   68.5971   44.8732 O   0  0  0  0  0  0  0  0  0  0  0  0
  111.2635   64.5699   35.4130 O   0  0  0  0  0  0  0  0  0  0  0  0
  111.5967   71.2252   31.1816 S   0  0  0  0  0  0  0  0  0  0  0  0
  110.1091   75.3108   34.6838 H   0  0  0  0  0  0  0  0  0  0  0  0
  110.4958   75.9477   32.3196 H   0  0  0  0  0  0  0  0  0  0  0  0
  110.3842   72.9418   35.4182 H   0  0  0  0  0  0  0  0  0  0  0  0
  111.1682   74.2249   30.6312 H   0  0  0  0  0  0  0  0  0  0  0  0
  109.0091   67.1104   38.9125 H   0  0  0  0  0  0  0  0  0  0  0  0
  112.8413   65.6339   40.1245 H   0  0  0  0  0  0  0  0  0  0  0  0
  111.9886   65.0500   37.9048 H   0  0  0  0  0  0  0  0  0  0  0  0
  109.8264   67.0338   36.9983 H   0  0  0  0  0  0  0  0  0  0  0  0
  108.5132   69.2440   41.1714 H   0  0  0  0  0  0  0  0  0  0  0  0
  107.4850   67.8235   40.7388 H   0  0  0  0  0  0  0  0  0  0  0  0
  107.5623   66.9640   42.9493 H   0  0  0  0  0  0  0  0  0  0  0  0
  107.2382   68.7501   43.0930 H   0  0  0  0  0  0  0  0  0  0  0  0
  110.8857   68.7045   35.0304 H   0  0  0  0  0  0  0  0  0  0  0  0
  109.2828   68.3206   34.8329 H   0  0  0  0  0  0  0  0  0  0  0  0
  110.1038   65.7857   32.6328 H   0  0  0  0  0  0  0  0  0  0  0  0
  111.7531   65.9688   32.6716 H   0  0  0  0  0  0  0  0  0  0  0  0
  109.8592   68.3177   32.2096 H   0  0  0  0  0  0  0  0  0  0  0  0
  111.9942   68.5337   31.4516 H   0  0  0  0  0  0  0  0  0  0  0  0
  112.6114   68.5624   33.1586 H   0  0  0  0  0  0  0  0  0  0  0  0
  111.1614   67.5981   43.8986 H   0  0  0  0  0  0  0  0  0  0  0  0
  1  2  2  0
  1  3  1  0
  2  4  1  0
  3  9  2  0
  4 10  2  0
  5  7  2  0
  5  8  1  0
  6  7  1  0
  6 23  2  0
  7 14  1  0
  8 11  2  0
  8 17  1  0
  9 10  1  0
  9 24  1  0
 10 29  1  0
 11 23  1  0
 11 25  1  0
 12 22  1  0
 12 24  2  0
 12 29  1  0
 13 18  1  0
 13 25  1  0
 13 27  2  0
 14 15  2  0
 15 16  1  0
 16 26  1  0
 16 28  2  0
 17 18  1  0
 19 21  1  0
 19 26  1  0
 20 21  1  0
 20 26  1  0
 21 22  1  0
  1 30  1  0
  2 31  1  0
  3 32  1  0
  4 33  1  0
  5 34  1  0
  6 35  1  0
 14 36  1  0
 15 37  1  0
 17 38  1  0
 17 39  1  0
 18 40  1  0
 18 41  1  0
 19 42  1  0
 19 43  1  0
 20 44  1  0
 20 45  1  0
 21 46  1  0
 22 47  1  0
 22 48  1  0
 25 49  1  0
M  END
>  <Name>  (226) 
CHEMBL3322715

>  <Comment>  (226) 
 Schrodinger Suite 2021-4.

>  <s_m_entry_id>  (226) 
1295

>  <class_value>  (226) 
0

>  <s_m_Source_Path>  (226) 
C:\Users\vinicius\Desktop

>  <s_m_Source_File>  (226) 
Ligands_Saureus_o.sdf

>  <i_m_Source_File_Index>  (226) 
175

>  <r_lp_tautomer_probability>  (226) 
1

>  <r_epik_Ionization_Penalty>  (226) 
0.0002

>  <r_epik_State_Penalty>  (226) 
0

>  <i_epik_Tot_Q>  (226) 
0

>  <i_f3d_flags>  (226) 
0

>  <s_m_job_name>  (226) 
Saureus_o

>  <FRED Chemgauss4 score>  (226) 
-12.923395

>  <Set>  (226) 
test

>  <HBA count>  (226) 
5

>  <HBD count>  (226) 
1

>  <ExactMolWt>  (226) 
404.13069688000064

>  <NumRotatableBounds>  (226) 
4

>  <FractionCsp3>  (226) 
0.2727272727272727

>  <TPSA>  (226) 
75.19

>  <LogP_WildmanCrippen>  (226) 
3.290300000000002

>  <General_Cluster>  (226) 
1

>  <Biological_Cluster>  (226) 
2

>  <Physicochemical_Cluster>  (226) 
1

>  <Structural_Cluster>  (226) 
2

$$$$
CHEMBL3676414
     RDKit          3D

 52 54  0  0  0  0  0  0  0  0999 V2000
  110.4077   67.2053   35.4972 C   0  0  0  0  0  0  0  0  0  0  0  0
  111.3303   65.4021   34.2566 C   0  0  0  0  0  0  0  0  0  0  0  0
  111.0165   65.9564   35.4849 C   0  0  0  0  0  0  0  0  0  0  0  0
  110.1511   67.8655   34.2946 C   0  0  0  0  0  0  0  0  0  0  0  0
  110.5102   67.2274   33.1079 C   0  0  0  0  0  0  0  0  0  0  0  0
  109.7979   69.1665   31.7598 C   0  0  0  0  0  0  0  0  0  0  0  0
  111.3050   65.2384   36.7386 C   0  0  0  0  0  0  0  0  0  0  0  0
  110.7122   65.4787   37.9177 C   0  0  0  0  0  0  0  0  0  0  0  0
  111.0420   64.7388   39.1493 C   0  0  0  0  0  0  0  0  0  0  0  0
  109.4113   69.1683   34.2576 C   0  0  0  0  0  0  0  0  0  0  0  0
  109.8116   69.9817   33.0368 C   0  0  0  0  0  0  0  0  0  0  0  0
  109.3141   66.1023   40.5292 C   0  0  0  0  0  0  0  0  0  0  0  0
  110.3514   64.5700   41.6039 C   0  0  0  0  0  0  0  0  0  0  0  0
  109.5575   65.8164   42.0183 C   0  0  0  0  0  0  0  0  0  0  0  0
  109.4342   61.6642   47.5910 C   0  0  0  0  0  0  0  0  0  0  0  0
  108.9151   62.2931   46.3069 C   0  0  0  0  0  0  0  0  0  0  0  0
  108.0764   63.5386   46.5958 C   0  0  0  0  0  0  0  0  0  0  0  0
  107.5888   64.2478   45.3305 C   0  0  0  0  0  0  0  0  0  0  0  0
  108.7181   64.6556   44.3957 C   0  0  0  0  0  0  0  0  0  0  0  0
  111.0856   66.0022   33.0703 N   0  0  0  0  0  0  0  0  0  0  0  0
  110.2388   67.8636   31.8815 N   0  0  0  0  0  0  0  0  0  0  0  0
  110.3410   65.1144   40.2584 N   0  0  0  0  0  0  0  0  0  0  0  0
  109.5016   69.6762   30.6792 O   0  0  0  0  0  0  0  0  0  0  0  0
  111.8943   63.8546   39.1236 O   0  0  0  0  0  0  0  0  0  0  0  0
  107.2741   64.5698   42.2184 O   0  0  0  0  0  0  0  0  0  0  0  0
  107.5660   66.7807   43.4010 O   0  0  0  0  0  0  0  0  0  0  0  0
  108.0983   65.4983   42.9731 S   0  0  0  0  0  6  0  0  0  0  0  0
  110.1285   67.6728   36.4530 H   0  0  0  0  0  0  0  0  0  0  0  0
  111.8086   64.4116   34.2447 H   0  0  0  0  0  0  0  0  0  0  0  0
  112.0651   64.4440   36.7052 H   0  0  0  0  0  0  0  0  0  0  0  0
  109.9441   66.2646   37.9679 H   0  0  0  0  0  0  0  0  0  0  0  0
  108.3303   68.9683   34.2192 H   0  0  0  0  0  0  0  0  0  0  0  0
  109.6624   69.7423   35.1617 H   0  0  0  0  0  0  0  0  0  0  0  0
  110.8274   70.3737   33.1930 H   0  0  0  0  0  0  0  0  0  0  0  0
  109.0759   70.7913   32.9216 H   0  0  0  0  0  0  0  0  0  0  0  0
  108.3104   65.8367   40.1659 H   0  0  0  0  0  0  0  0  0  0  0  0
  109.3563   67.1199   40.1137 H   0  0  0  0  0  0  0  0  0  0  0  0
  111.3487   64.4848   42.0600 H   0  0  0  0  0  0  0  0  0  0  0  0
  110.0006   63.5514   41.8263 H   0  0  0  0  0  0  0  0  0  0  0  0
  109.9962   66.5773   42.6806 H   0  0  0  0  0  0  0  0  0  0  0  0
  109.0020   62.1878   48.4565 H   0  0  0  0  0  0  0  0  0  0  0  0
  109.1453   60.6033   47.6225 H   0  0  0  0  0  0  0  0  0  0  0  0
  110.5306   61.7467   47.6225 H   0  0  0  0  0  0  0  0  0  0  0  0
  109.7703   62.5759   45.6756 H   0  0  0  0  0  0  0  0  0  0  0  0
  108.2779   61.5577   45.7939 H   0  0  0  0  0  0  0  0  0  0  0  0
  107.1992   63.2390   47.1880 H   0  0  0  0  0  0  0  0  0  0  0  0
  108.7208   64.2464   47.1378 H   0  0  0  0  0  0  0  0  0  0  0  0
  106.9143   63.5692   44.7879 H   0  0  0  0  0  0  0  0  0  0  0  0
  107.0808   65.1699   45.6492 H   0  0  0  0  0  0  0  0  0  0  0  0
  109.4073   65.3219   44.9352 H   0  0  0  0  0  0  0  0  0  0  0  0
  109.2389   63.7460   44.0618 H   0  0  0  0  0  0  0  0  0  0  0  0
  110.3785   67.3208   31.0173 H   0  0  0  0  0  0  0  0  0  0  0  0
  1  3  2  0
  1  4  1  0
  2  3  1  0
  2 20  2  0
  3  7  1  0
  4  5  2  0
  4 10  1  0
  5 20  1  0
  5 21  1  0
  6 11  1  0
  6 21  1  0
  6 23  2  0
  7  8  2  0
  8  9  1  0
  9 22  1  0
  9 24  2  0
 10 11  1  0
 12 14  1  0
 12 22  1  0
 13 14  1  0
 13 22  1  0
 14 27  1  0
 15 16  1  0
 16 17  1  0
 17 18  1  0
 18 19  1  0
 19 27  1  0
 25 27  2  0
 26 27  2  0
  1 28  1  0
  2 29  1  0
  7 30  1  0
  8 31  1  0
 10 32  1  0
 10 33  1  0
 11 34  1  0
 11 35  1  0
 12 36  1  0
 12 37  1  0
 13 38  1  0
 13 39  1  0
 14 40  1  0
 15 41  1  0
 15 42  1  0
 15 43  1  0
 16 44  1  0
 16 45  1  0
 17 46  1  0
 17 47  1  0
 18 48  1  0
 18 49  1  0
 19 50  1  0
 19 51  1  0
 21 52  1  0
M  END
>  <Name>  (227) 
CHEMBL3676414

>  <Comment>  (227) 
 Schrodinger Suite 2021-4.

>  <s_m_entry_id>  (227) 
1260

>  <class_value>  (227) 
0

>  <s_m_Source_Path>  (227) 
C:\Users\vinicius\Desktop

>  <s_m_Source_File>  (227) 
Ligands_Saureus_o.sdf

>  <i_m_Source_File_Index>  (227) 
152

>  <r_lp_tautomer_probability>  (227) 
1

>  <r_epik_Ionization_Penalty>  (227) 
0.0002

>  <r_epik_State_Penalty>  (227) 
0

>  <i_epik_Tot_Q>  (227) 
0

>  <i_f3d_flags>  (227) 
0

>  <s_m_job_name>  (227) 
Saureus_o

>  <FRED Chemgauss4 score>  (227) 
-11.789263

>  <Set>  (227) 
test

>  <HBA count>  (227) 
5

>  <HBD count>  (227) 
1

>  <ExactMolWt>  (227) 
391.15657728000065

>  <NumRotatableBounds>  (227) 
8

>  <FractionCsp3>  (227) 
0.5263157894736842

>  <TPSA>  (227) 
96.44

>  <LogP_WildmanCrippen>  (227) 
1.7953000000000003

>  <General_Cluster>  (227) 
5

>  <Biological_Cluster>  (227) 
2

>  <Physicochemical_Cluster>  (227) 
4

>  <Structural_Cluster>  (227) 
2

$$$$
CHEMBL3623396
     RDKit          3D

 39 41  0  0  0  0  0  0  0  0999 V2000
  110.1937   69.4583   31.8018 C   0  0  0  0  0  0  0  0  0  0  0  0
  109.9918   68.1270   32.1660 C   0  0  0  0  0  0  0  0  0  0  0  0
  110.5047   70.4081   32.7748 C   0  0  0  0  0  0  0  0  0  0  0  0
  110.1010   67.7456   33.5033 C   0  0  0  0  0  0  0  0  0  0  0  0
  110.6138   70.0267   34.1121 C   0  0  0  0  0  0  0  0  0  0  0  0
  110.6567   68.0988   43.0638 C   0  0  0  0  0  0  0  0  0  0  0  0
  109.9097   68.9887   43.8357 C   0  0  0  0  0  0  0  0  0  0  0  0
  107.9801   67.5498   43.6272 C   0  0  0  0  0  0  0  0  0  0  0  0
  110.4120   68.6954   34.4764 C   0  0  0  0  0  0  0  0  0  0  0  0
  108.7271   66.6599   42.8553 C   0  0  0  0  0  0  0  0  0  0  0  0
  110.0653   66.9345   42.5735 C   0  0  0  0  0  0  0  0  0  0  0  0
  108.5715   68.7141   44.1174 C   0  0  0  0  0  0  0  0  0  0  0  0
  111.5657   65.6590   38.1304 C   0  0  0  0  0  0  0  0  0  0  0  0
  110.1312   67.2698   39.8820 C   0  0  0  0  0  0  0  0  0  0  0  0
  110.8173   66.2758   40.4588 C   0  0  0  0  0  0  0  0  0  0  0  0
  110.8306   66.6929   37.7090 C   0  0  0  0  0  0  0  0  0  0  0  0
  111.6073   65.3753   39.5841 C   0  0  0  0  0  0  0  0  0  0  0  0
  110.5273   68.2932   35.8890 C   0  0  0  0  0  0  0  0  0  0  0  0
  110.7342   67.0398   36.3164 C   0  0  0  0  0  0  0  0  0  0  0  0
  108.0775   65.4195   42.3369 C   0  0  0  0  0  0  0  0  0  0  0  0
  112.2625   64.4424   40.0334 O   0  0  0  0  0  0  0  0  0  0  0  0
  110.1005   67.5246   38.5313 O   0  0  0  0  0  0  0  0  0  0  0  0
  110.8120   66.0723   41.8177 O   0  0  0  0  0  0  0  0  0  0  0  0
  107.6495   69.8115   45.0696 Cl  0  0  0  0  0  0  0  0  0  0  0  0
  110.1077   69.7591   30.7472 H   0  0  0  0  0  0  0  0  0  0  0  0
  109.7465   67.3780   31.3987 H   0  0  0  0  0  0  0  0  0  0  0  0
  110.6639   71.4579   32.4875 H   0  0  0  0  0  0  0  0  0  0  0  0
  109.9419   66.6958   33.7905 H   0  0  0  0  0  0  0  0  0  0  0  0
  110.8590   70.7758   34.8794 H   0  0  0  0  0  0  0  0  0  0  0  0
  111.7121   68.3152   42.8417 H   0  0  0  0  0  0  0  0  0  0  0  0
  110.3759   69.9070   44.2222 H   0  0  0  0  0  0  0  0  0  0  0  0
  106.9247   67.3334   43.8493 H   0  0  0  0  0  0  0  0  0  0  0  0
  112.1247   65.0356   37.4171 H   0  0  0  0  0  0  0  0  0  0  0  0
  109.5480   67.9328   40.5380 H   0  0  0  0  0  0  0  0  0  0  0  0
  110.4367   69.0815   36.6509 H   0  0  0  0  0  0  0  0  0  0  0  0
  110.8349   66.2399   35.5680 H   0  0  0  0  0  0  0  0  0  0  0  0
  107.7509   64.7959   43.1822 H   0  0  0  0  0  0  0  0  0  0  0  0
  107.2059   65.6911   41.7233 H   0  0  0  0  0  0  0  0  0  0  0  0
  108.7971   64.8577   41.7233 H   0  0  0  0  0  0  0  0  0  0  0  0
  1  2  2  0
  1  3  1  0
  2  4  1  0
  3  5  2  0
  4  9  2  0
  5  9  1  0
  6  7  2  0
  6 11  1  0
  7 12  1  0
  8 10  1  0
  8 12  2  0
  9 18  1  0
 10 11  2  0
 10 20  1  0
 11 23  1  0
 12 24  1  0
 13 16  2  0
 13 17  1  0
 14 15  2  0
 14 22  1  0
 15 17  1  0
 15 23  1  0
 16 19  1  0
 16 22  1  0
 17 21  2  0
 18 19  2  0
  1 25  1  0
  2 26  1  0
  3 27  1  0
  4 28  1  0
  5 29  1  0
  6 30  1  0
  7 31  1  0
  8 32  1  0
 13 33  1  0
 14 34  1  0
 18 35  1  0
 19 36  1  0
 20 37  1  0
 20 38  1  0
 20 39  1  0
M  END
>  <Name>  (228) 
CHEMBL3623396

>  <Comment>  (228) 
 Schrodinger Suite 2021-4.

>  <s_m_entry_id>  (228) 
1245

>  <class_value>  (228) 
0

>  <s_m_Source_Path>  (228) 
C:\Users\vinicius\Desktop

>  <s_m_Source_File>  (228) 
Ligands_Saureus_o.sdf

>  <i_m_Source_File_Index>  (228) 
138

>  <r_lp_tautomer_probability>  (228) 
1

>  <r_epik_Ionization_Penalty>  (228) 
0

>  <r_epik_State_Penalty>  (228) 
0

>  <i_epik_Tot_Q>  (228) 
0

>  <i_f3d_flags>  (228) 
0

>  <s_m_job_name>  (228) 
Saureus_o

>  <FRED Chemgauss4 score>  (228) 
-11.938476

>  <Set>  (228) 
test

>  <HBA count>  (228) 
3

>  <HBD count>  (228) 
0

>  <ExactMolWt>  (228) 
338.0709720200004

>  <NumRotatableBounds>  (228) 
5

>  <FractionCsp3>  (228) 
0.05

>  <TPSA>  (228) 
39.44

>  <LogP_WildmanCrippen>  (228) 
5.564320000000003

>  <General_Cluster>  (228) 
4

>  <Biological_Cluster>  (228) 
2

>  <Physicochemical_Cluster>  (228) 
3

>  <Structural_Cluster>  (228) 
1

$$$$
CHEMBL4204726
     RDKit          3D

 54 57  0  0  1  0  0  0  0  0999 V2000
  110.6327   69.1433   32.9952 C   0  0  0  0  0  0  0  0  0  0  0  0
  109.2210   67.1489   40.3537 C   0  0  0  0  0  0  0  0  0  0  0  0
  110.6307   65.4172   41.2760 C   0  0  0  0  0  0  0  0  0  0  0  0
  111.0252   70.2934   32.3064 C   0  0  0  0  0  0  0  0  0  0  0  0
  108.3389   67.0010   41.4240 C   0  0  0  0  0  0  0  0  0  0  0  0
  109.7487   65.2692   42.3464 C   0  0  0  0  0  0  0  0  0  0  0  0
  110.9324   70.2694   35.1330 C   0  0  0  0  0  0  0  0  0  0  0  0
  110.5865   69.1313   34.4004 C   0  0  0  0  0  0  0  0  0  0  0  0
  110.3669   66.3570   40.2796 C   0  0  0  0  0  0  0  0  0  0  0  0
  111.3618   71.4036   33.0533 C   0  0  0  0  0  0  0  0  0  0  0  0
  111.3165   71.3920   34.4287 C   0  0  0  0  0  0  0  0  0  0  0  0
  108.6028   66.0612   42.4204 C   0  0  0  0  0  0  0  0  0  0  0  0
  110.9621   65.6129   37.9733 C   0  0  0  0  0  0  0  0  0  0  0  0
  110.5036   66.5361   34.4447 C   0  0  0  0  0  0  0  0  0  0  0  0
  110.3604   65.5203   35.5669 C   0  0  0  0  0  0  0  0  0  0  0  0
  110.7887   67.6852   36.5142 C   0  0  0  0  0  0  0  0  0  0  0  0
  111.9686   73.3499   33.7783 C   0  0  0  0  0  0  0  0  0  0  0  0
  110.1591   67.8732   35.1245 C   0  0  1  0  0  0  0  0  0  0  0  0
  105.2805   64.4081   44.2795 C   0  0  0  0  0  0  0  0  0  0  0  0
  107.0698   63.3562   42.8605 C   0  0  0  0  0  0  0  0  0  0  0  0
  111.3151   66.5153   39.1285 C   0  0  0  0  0  0  0  0  0  0  0  0
  106.3410   64.6441   43.2143 C   0  0  0  0  0  0  0  0  0  0  0  0
  110.7189   66.2505   36.7700 N   0  0  0  0  0  0  0  0  0  0  0  0
  110.8984   64.3927   38.1320 O   0  0  0  0  0  0  0  0  0  0  0  0
  108.2458   65.3242   44.8829 O   0  0  0  0  0  0  0  0  0  0  0  0
  106.7527   67.1161   43.9312 O   0  0  0  0  0  0  0  0  0  0  0  0
  111.7645   72.6061   32.5596 O   0  0  0  0  0  0  0  0  0  0  0  0
  111.6856   72.5856   34.9683 O   0  0  0  0  0  0  0  0  0  0  0  0
  107.5000   65.8774   43.7614 S   0  0  0  0  0  6  0  0  0  0  0  0
  110.3572   68.2388   32.4331 H   0  0  0  0  0  0  0  0  0  0  0  0
  109.0130   67.8901   39.5680 H   0  0  0  0  0  0  0  0  0  0  0  0
  111.5344   64.7927   41.2176 H   0  0  0  0  0  0  0  0  0  0  0  0
  111.0645   70.3133   31.2073 H   0  0  0  0  0  0  0  0  0  0  0  0
  107.4352   67.6254   41.4823 H   0  0  0  0  0  0  0  0  0  0  0  0
  109.9567   64.5280   43.1321 H   0  0  0  0  0  0  0  0  0  0  0  0
  110.8997   70.2705   36.2325 H   0  0  0  0  0  0  0  0  0  0  0  0
  111.5316   66.5473   34.0533 H   0  0  0  0  0  0  0  0  0  0  0  0
  109.8581   66.3152   33.5819 H   0  0  0  0  0  0  0  0  0  0  0  0
  109.3251   65.1537   35.6291 H   0  0  0  0  0  0  0  0  0  0  0  0
  110.9946   64.6350   35.4117 H   0  0  0  0  0  0  0  0  0  0  0  0
  111.8341   68.0275   36.5144 H   0  0  0  0  0  0  0  0  0  0  0  0
  110.2660   68.2683   37.2867 H   0  0  0  0  0  0  0  0  0  0  0  0
  113.0179   73.6778   33.8155 H   0  0  0  0  0  0  0  0  0  0  0  0
  111.2690   74.1986   33.7626 H   0  0  0  0  0  0  0  0  0  0  0  0
  109.0756   68.0621   35.1436 H   0  0  0  0  0  0  0  0  0  0  0  0
  105.7337   64.5089   45.2767 H   0  0  0  0  0  0  0  0  0  0  0  0
  104.4755   65.1491   44.1659 H   0  0  0  0  0  0  0  0  0  0  0  0
  104.8657   63.3957   44.1659 H   0  0  0  0  0  0  0  0  0  0  0  0
  107.3642   62.8360   43.7839 H   0  0  0  0  0  0  0  0  0  0  0  0
  106.4044   62.7084   42.2709 H   0  0  0  0  0  0  0  0  0  0  0  0
  107.9677   63.5931   42.2709 H   0  0  0  0  0  0  0  0  0  0  0  0
  111.2841   67.5598   38.7848 H   0  0  0  0  0  0  0  0  0  0  0  0
  112.3208   66.2393   39.4783 H   0  0  0  0  0  0  0  0  0  0  0  0
  105.8337   65.0047   42.3073 H   0  0  0  0  0  0  0  0  0  0  0  0
  1  4  2  0
  1  8  1  0
  2  5  2  0
  2  9  1  0
  3  6  1  0
  3  9  2  0
  4 10  1  0
  5 12  1  0
  6 12  2  0
  7  8  2  0
  7 11  1  0
  8 18  1  0
  9 21  1  0
 10 11  2  0
 10 27  1  0
 11 28  1  0
 12 29  1  0
 13 21  1  0
 13 23  1  0
 13 24  2  0
 14 15  1  0
 14 18  1  0
 15 23  1  0
 16 18  1  0
 16 23  1  0
 17 27  1  0
 17 28  1  0
 19 22  1  0
 20 22  1  0
 22 29  1  0
 25 29  2  0
 26 29  2  0
  1 30  1  0
  2 31  1  0
  3 32  1  0
  4 33  1  0
  5 34  1  0
  6 35  1  0
  7 36  1  0
 14 37  1  0
 14 38  1  0
 15 39  1  0
 15 40  1  0
 16 41  1  0
 16 42  1  0
 17 43  1  0
 17 44  1  0
 18 45  1  1
 19 46  1  0
 19 47  1  0
 19 48  1  0
 20 49  1  0
 20 50  1  0
 20 51  1  0
 21 52  1  0
 21 53  1  0
 22 54  1  0
M  END
>  <Name>  (229) 
CHEMBL4204726

>  <Comment>  (229) 
 Schrodinger Suite 2021-4.

>  <s_m_entry_id>  (229) 
1505

>  <s_m_Source_Path>  (229) 
C:\Users\vinicius\Desktop

>  <s_m_Source_File>  (229) 
Ligands_Saureus_failomega.smi

>  <i_m_Source_File_Index>  (229) 
38

>  <r_lp_tautomer_probability>  (229) 
1

>  <r_epik_Ionization_Penalty>  (229) 
0

>  <r_epik_State_Penalty>  (229) 
0

>  <i_epik_Tot_Q>  (229) 
0

>  <i_f3d_flags>  (229) 
0

>  <s_m_job_name>  (229) 
Saureus_fail

>  <class_value>  (229) 
0

>  <FRED Chemgauss4 score>  (229) 
-13.409725

>  <Set>  (229) 
test

>  <HBA count>  (229) 
5

>  <HBD count>  (229) 
0

>  <ExactMolWt>  (229) 
415.1453439000006

>  <NumRotatableBounds>  (229) 
7

>  <FractionCsp3>  (229) 
0.4090909090909091

>  <TPSA>  (229) 
72.91000000000001

>  <LogP_WildmanCrippen>  (229) 
3.1560000000000006

>  <General_Cluster>  (229) 
3

>  <Biological_Cluster>  (229) 
2

>  <Physicochemical_Cluster>  (229) 
1

>  <Structural_Cluster>  (229) 
4

$$$$
CHEMBL4213468
     RDKit          3D

 50 52  0  0  1  0  0  0  0  0999 V2000
  111.8815   72.3367   35.9593 C   0  0  0  0  0  0  0  0  0  0  0  0
  111.9222   72.7296   34.6216 C   0  0  0  0  0  0  0  0  0  0  0  0
  111.3826   71.0800   36.3022 C   0  0  0  0  0  0  0  0  0  0  0  0
  109.4446   66.8872   40.5951 C   0  0  0  0  0  0  0  0  0  0  0  0
  110.6907   64.8551   40.9886 C   0  0  0  0  0  0  0  0  0  0  0  0
  108.5651   66.5470   41.6229 C   0  0  0  0  0  0  0  0  0  0  0  0
  109.8113   64.5149   42.0165 C   0  0  0  0  0  0  0  0  0  0  0  0
  111.4639   71.8659   33.6268 C   0  0  0  0  0  0  0  0  0  0  0  0
  110.9244   70.2163   35.3074 C   0  0  0  0  0  0  0  0  0  0  0  0
  110.5073   66.0412   40.2779 C   0  0  0  0  0  0  0  0  0  0  0  0
  108.7485   65.3609   42.3336 C   0  0  0  0  0  0  0  0  0  0  0  0
  110.9650   70.6092   33.9697 C   0  0  0  0  0  0  0  0  0  0  0  0
  111.0009   65.8715   37.8376 C   0  0  0  0  0  0  0  0  0  0  0  0
  106.7553   65.7365   43.8204 C   0  0  0  0  0  0  0  0  0  0  0  0
  110.5922   67.7170   34.6849 C   0  0  0  0  0  0  0  0  0  0  0  0
  110.3650   66.4617   35.5121 C   0  0  0  0  0  0  0  0  0  0  0  0
  111.0110   68.2585   36.9687 C   0  0  0  0  0  0  0  0  0  0  0  0
  110.3862   68.8571   35.6982 C   0  0  1  0  0  0  0  0  0  0  0  0
  106.0625   65.0261   44.9560 C   0  0  0  0  0  0  0  0  0  0  0  0
  110.5989   70.2601   31.6459 C   0  0  0  0  0  0  0  0  0  0  0  0
  111.4528   66.4071   39.1726 C   0  0  0  0  0  0  0  0  0  0  0  0
  110.8062   66.8190   36.8488 N   0  0  0  0  0  0  0  0  0  0  0  0
  107.8692   65.0205   43.3619 N   0  0  0  0  0  0  0  0  0  0  0  0
  110.8218   64.6628   37.6790 O   0  0  0  0  0  0  0  0  0  0  0  0
  106.3333   66.8088   43.3996 O   0  0  0  0  0  0  0  0  0  0  0  0
  110.5207   69.7780   32.9858 O   0  0  0  0  0  0  0  0  0  0  0  0
  112.2428   73.0178   36.7438 H   0  0  0  0  0  0  0  0  0  0  0  0
  112.3157   73.7206   34.3511 H   0  0  0  0  0  0  0  0  0  0  0  0
  111.3505   70.7701   37.3572 H   0  0  0  0  0  0  0  0  0  0  0  0
  109.3001   67.8227   40.0347 H   0  0  0  0  0  0  0  0  0  0  0  0
  111.5288   64.1880   40.7385 H   0  0  0  0  0  0  0  0  0  0  0  0
  107.7269   67.2141   41.8729 H   0  0  0  0  0  0  0  0  0  0  0  0
  109.9559   63.5795   42.5770 H   0  0  0  0  0  0  0  0  0  0  0  0
  111.4959   72.1758   32.5718 H   0  0  0  0  0  0  0  0  0  0  0  0
  111.6118   67.7369   34.2725 H   0  0  0  0  0  0  0  0  0  0  0  0
  109.9182   67.7869   33.8184 H   0  0  0  0  0  0  0  0  0  0  0  0
  109.3001   66.1862   35.5153 H   0  0  0  0  0  0  0  0  0  0  0  0
  110.9091   65.5938   35.1113 H   0  0  0  0  0  0  0  0  0  0  0  0
  112.0845   68.4933   37.0191 H   0  0  0  0  0  0  0  0  0  0  0  0
  110.5560   68.6655   37.8838 H   0  0  0  0  0  0  0  0  0  0  0  0
  109.3263   69.1315   35.8048 H   0  0  0  0  0  0  0  0  0  0  0  0
  106.4393   65.4125   45.9145 H   0  0  0  0  0  0  0  0  0  0  0  0
  104.9784   65.2009   44.8909 H   0  0  0  0  0  0  0  0  0  0  0  0
  106.2644   63.9468   44.8909 H   0  0  0  0  0  0  0  0  0  0  0  0
  110.7750   71.3459   31.6566 H   0  0  0  0  0  0  0  0  0  0  0  0
  111.4276   69.7593   31.1238 H   0  0  0  0  0  0  0  0  0  0  0  0
  109.6544   70.0470   31.1238 H   0  0  0  0  0  0  0  0  0  0  0  0
  111.5187   67.5034   39.1108 H   0  0  0  0  0  0  0  0  0  0  0  0
  112.4313   65.9602   39.4027 H   0  0  0  0  0  0  0  0  0  0  0  0
  108.0631   64.1315   43.8445 H   0  0  0  0  0  0  0  0  0  0  0  0
  1  2  2  0
  1  3  1  0
  2  8  1  0
  3  9  2  0
  4  6  2  0
  4 10  1  0
  5  7  1  0
  5 10  2  0
  6 11  1  0
  7 11  2  0
  8 12  2  0
  9 12  1  0
  9 18  1  0
 10 21  1  0
 11 23  1  0
 12 26  1  0
 13 21  1  0
 13 22  1  0
 13 24  2  0
 14 19  1  0
 14 23  1  0
 14 25  2  0
 15 16  1  0
 15 18  1  0
 16 22  1  0
 17 18  1  0
 17 22  1  0
 20 26  1  0
  1 27  1  0
  2 28  1  0
  3 29  1  0
  4 30  1  0
  5 31  1  0
  6 32  1  0
  7 33  1  0
  8 34  1  0
 15 35  1  0
 15 36  1  0
 16 37  1  0
 16 38  1  0
 17 39  1  0
 17 40  1  0
 18 41  1  1
 19 42  1  0
 19 43  1  0
 19 44  1  0
 20 45  1  0
 20 46  1  0
 20 47  1  0
 21 48  1  0
 21 49  1  0
 23 50  1  0
M  END
>  <Name>  (230) 
CHEMBL4213468

>  <Comment>  (230) 
 Schrodinger Suite 2021-4.

>  <s_m_entry_id>  (230) 
1501

>  <s_m_Source_Path>  (230) 
C:\Users\vinicius\Desktop

>  <s_m_Source_File>  (230) 
Ligands_Saureus_failomega.smi

>  <i_m_Source_File_Index>  (230) 
36

>  <r_lp_tautomer_probability>  (230) 
1

>  <r_epik_Ionization_Penalty>  (230) 
0

>  <r_epik_State_Penalty>  (230) 
0

>  <i_epik_Tot_Q>  (230) 
0

>  <i_f3d_flags>  (230) 
0

>  <s_m_job_name>  (230) 
Saureus_fail

>  <class_value>  (230) 
0

>  <FRED Chemgauss4 score>  (230) 
-13.193282

>  <Set>  (230) 
test

>  <HBA count>  (230) 
3

>  <HBD count>  (230) 
1

>  <ExactMolWt>  (230) 
352.17869262800065

>  <NumRotatableBounds>  (230) 
7

>  <FractionCsp3>  (230) 
0.3333333333333333

>  <TPSA>  (230) 
58.64

>  <LogP_WildmanCrippen>  (230) 
3.212200000000001

>  <General_Cluster>  (230) 
3

>  <Biological_Cluster>  (230) 
2

>  <Physicochemical_Cluster>  (230) 
1

>  <Structural_Cluster>  (230) 
4

$$$$
CHEMBL3623431
     RDKit          3D

 37 39  0  0  0  0  0  0  0  0999 V2000
  110.1515   68.4647   32.0308 C   0  0  0  0  0  0  0  0  0  0  0  0
  110.2373   67.1817   32.5713 C   0  0  0  0  0  0  0  0  0  0  0  0
  110.1421   69.5769   32.8726 C   0  0  0  0  0  0  0  0  0  0  0  0
  107.6384   68.6700   43.7636 C   0  0  0  0  0  0  0  0  0  0  0  0
  110.3134   67.0108   33.9535 C   0  0  0  0  0  0  0  0  0  0  0  0
  110.2183   69.4061   34.2549 C   0  0  0  0  0  0  0  0  0  0  0  0
  108.8621   68.3527   43.1740 C   0  0  0  0  0  0  0  0  0  0  0  0
  106.7395   67.6558   44.0937 C   0  0  0  0  0  0  0  0  0  0  0  0
  110.3040   68.1230   34.7953 C   0  0  0  0  0  0  0  0  0  0  0  0
  109.1867   67.0213   42.9144 C   0  0  0  0  0  0  0  0  0  0  0  0
  107.0641   66.3243   43.8340 C   0  0  0  0  0  0  0  0  0  0  0  0
  108.2877   66.0070   43.2444 C   0  0  0  0  0  0  0  0  0  0  0  0
  111.7132   66.3908   38.7722 C   0  0  0  0  0  0  0  0  0  0  0  0
  109.3632   66.9322   40.1983 C   0  0  0  0  0  0  0  0  0  0  0  0
  110.4396   66.7105   40.9637 C   0  0  0  0  0  0  0  0  0  0  0  0
  110.5533   66.6332   38.1328 C   0  0  0  0  0  0  0  0  0  0  0  0
  111.7296   66.4148   40.2674 C   0  0  0  0  0  0  0  0  0  0  0  0
  110.4604   66.6263   36.6369 C   0  0  0  0  0  0  0  0  0  0  0  0
  109.3947   66.9000   38.8316 N   0  0  0  0  0  0  0  0  0  0  0  0
  112.7632   66.1998   40.8910 O   0  0  0  0  0  0  0  0  0  0  0  0
  110.3959   66.7455   42.3355 O   0  0  0  0  0  0  0  0  0  0  0  0
  110.3773   67.9553   36.1562 O   0  0  0  0  0  0  0  0  0  0  0  0
  105.9040   65.1170   44.2672 Cl  0  0  0  0  0  0  0  0  0  0  0  0
  108.7227   64.3625   42.9083 Cl  0  0  0  0  0  0  0  0  0  0  0  0
  110.0913   68.5994   30.9407 H   0  0  0  0  0  0  0  0  0  0  0  0
  110.2449   66.3046   31.9075 H   0  0  0  0  0  0  0  0  0  0  0  0
  110.0746   70.5887   32.4464 H   0  0  0  0  0  0  0  0  0  0  0  0
  107.3823   69.7200   43.9682 H   0  0  0  0  0  0  0  0  0  0  0  0
  110.3808   65.9990   34.3797 H   0  0  0  0  0  0  0  0  0  0  0  0
  110.2108   70.2832   34.9187 H   0  0  0  0  0  0  0  0  0  0  0  0
  109.5711   69.1525   42.9138 H   0  0  0  0  0  0  0  0  0  0  0  0
  105.7746   67.9060   44.5588 H   0  0  0  0  0  0  0  0  0  0  0  0
  112.6317   66.1790   38.2053 H   0  0  0  0  0  0  0  0  0  0  0  0
  108.4059   67.1512   40.6938 H   0  0  0  0  0  0  0  0  0  0  0  0
  111.3543   66.1414   36.2176 H   0  0  0  0  0  0  0  0  0  0  0  0
  109.5607   66.0722   36.3311 H   0  0  0  0  0  0  0  0  0  0  0  0
  108.5263   67.0806   38.3079 H   0  0  0  0  0  0  0  0  0  0  0  0
  1  2  2  0
  1  3  1  0
  2  5  1  0
  3  6  2  0
  4  7  2  0
  4  8  1  0
  5  9  2  0
  6  9  1  0
  7 10  1  0
  8 11  2  0
  9 22  1  0
 10 12  2  0
 10 21  1  0
 11 12  1  0
 11 23  1  0
 12 24  1  0
 13 16  2  0
 13 17  1  0
 14 15  2  0
 14 19  1  0
 15 17  1  0
 15 21  1  0
 16 18  1  0
 16 19  1  0
 17 20  2  0
 18 22  1  0
  1 25  1  0
  2 26  1  0
  3 27  1  0
  4 28  1  0
  5 29  1  0
  6 30  1  0
  7 31  1  0
  8 32  1  0
 13 33  1  0
 14 34  1  0
 18 35  1  0
 18 36  1  0
 19 37  1  0
M  END
>  <Name>  (231) 
CHEMBL3623431

>  <Comment>  (231) 
 Schrodinger Suite 2021-4.

>  <s_m_entry_id>  (231) 
1187

>  <class_value>  (231) 
1

>  <s_m_Source_Path>  (231) 
C:\Users\vinicius\Desktop

>  <s_m_Source_File>  (231) 
Ligands_Saureus_o.sdf

>  <i_m_Source_File_Index>  (231) 
90

>  <r_lp_tautomer_probability>  (231) 
0.972255101557691

>  <r_epik_Ionization_Penalty>  (231) 
0.0259

>  <r_epik_State_Penalty>  (231) 
0.0641

>  <i_epik_Tot_Q>  (231) 
0

>  <i_f3d_flags>  (231) 
0

>  <s_m_job_name>  (231) 
Saureus_o

>  <FRED Chemgauss4 score>  (231) 
-13.313444

>  <Set>  (231) 
test

>  <HBA count>  (231) 
3

>  <HBD count>  (231) 
1

>  <ExactMolWt>  (231) 
361.0272486360003

>  <NumRotatableBounds>  (231) 
5

>  <FractionCsp3>  (231) 
0.05555555555555555

>  <TPSA>  (231) 
51.32000000000001

>  <LogP_WildmanCrippen>  (231) 
5.053000000000003

>  <General_Cluster>  (231) 
4

>  <Biological_Cluster>  (231) 
1

>  <Physicochemical_Cluster>  (231) 
3

>  <Structural_Cluster>  (231) 
1

$$$$
CHEMBL3623408
     RDKit          3D

 42 44  0  0  0  0  0  0  0  0999 V2000
  109.8590   68.7384   31.7095 C   0  0  0  0  0  0  0  0  0  0  0  0
  109.9780   67.4072   32.1083 C   0  0  0  0  0  0  0  0  0  0  0  0
  109.8991   69.7578   32.6608 C   0  0  0  0  0  0  0  0  0  0  0  0
  110.1370   67.0952   33.4585 C   0  0  0  0  0  0  0  0  0  0  0  0
  110.0581   69.4459   34.0110 C   0  0  0  0  0  0  0  0  0  0  0  0
  109.3390   68.4940   43.7392 C   0  0  0  0  0  0  0  0  0  0  0  0
  110.3035   67.7956   43.0129 C   0  0  0  0  0  0  0  0  0  0  0  0
  107.8263   66.6218   43.5309 C   0  0  0  0  0  0  0  0  0  0  0  0
  110.1771   68.1146   34.4099 C   0  0  0  0  0  0  0  0  0  0  0  0
  108.1004   67.9071   43.9983 C   0  0  0  0  0  0  0  0  0  0  0  0
  108.7908   65.9233   42.8045 C   0  0  0  0  0  0  0  0  0  0  0  0
  110.0294   66.5103   42.5455 C   0  0  0  0  0  0  0  0  0  0  0  0
  111.9283   65.5391   38.1786 C   0  0  0  0  0  0  0  0  0  0  0  0
  110.0918   66.7891   39.8476 C   0  0  0  0  0  0  0  0  0  0  0  0
  110.9826   66.0073   40.4695 C   0  0  0  0  0  0  0  0  0  0  0  0
  110.9757   66.3512   37.7096 C   0  0  0  0  0  0  0  0  0  0  0  0
  111.9945   65.3080   39.6407 C   0  0  0  0  0  0  0  0  0  0  0  0
  110.3449   67.7857   35.8361 C   0  0  0  0  0  0  0  0  0  0  0  0
  110.8391   66.6315   36.3054 C   0  0  0  0  0  0  0  0  0  0  0  0
  107.0702   68.6537   44.7761 C   0  0  0  0  0  0  0  0  0  0  0  0
  108.4810   64.5478   42.3129 C   0  0  0  0  0  0  0  0  0  0  0  0
  112.8442   64.5750   40.1328 O   0  0  0  0  0  0  0  0  0  0  0  0
  110.0401   66.9973   38.4895 O   0  0  0  0  0  0  0  0  0  0  0  0
  110.9865   65.8403   41.8333 O   0  0  0  0  0  0  0  0  0  0  0  0
  109.7335   68.9844   30.6447 H   0  0  0  0  0  0  0  0  0  0  0  0
  109.9465   66.6034   31.3581 H   0  0  0  0  0  0  0  0  0  0  0  0
  109.8053   70.8077   32.3462 H   0  0  0  0  0  0  0  0  0  0  0  0
  110.2308   66.0453   33.7730 H   0  0  0  0  0  0  0  0  0  0  0  0
  110.0896   70.2498   34.7612 H   0  0  0  0  0  0  0  0  0  0  0  0
  109.5551   69.5077   44.1077 H   0  0  0  0  0  0  0  0  0  0  0  0
  111.2803   68.2584   42.8087 H   0  0  0  0  0  0  0  0  0  0  0  0
  106.8495   66.1590   43.7351 H   0  0  0  0  0  0  0  0  0  0  0  0
  112.6438   65.0554   37.4974 H   0  0  0  0  0  0  0  0  0  0  0  0
  109.3449   67.3038   40.4699 H   0  0  0  0  0  0  0  0  0  0  0  0
  110.0415   68.5451   36.5718 H   0  0  0  0  0  0  0  0  0  0  0  0
  111.1546   65.8636   35.5837 H   0  0  0  0  0  0  0  0  0  0  0  0
  107.2549   68.5198   45.8522 H   0  0  0  0  0  0  0  0  0  0  0  0
  107.1249   69.7232   44.5249 H   0  0  0  0  0  0  0  0  0  0  0  0
  106.0708   68.2687   44.5249 H   0  0  0  0  0  0  0  0  0  0  0  0
  108.3299   63.8769   43.1715 H   0  0  0  0  0  0  0  0  0  0  0  0
  107.5662   64.5739   41.7025 H   0  0  0  0  0  0  0  0  0  0  0  0
  109.3186   64.1792   41.7025 H   0  0  0  0  0  0  0  0  0  0  0  0
  1  2  2  0
  1  3  1  0
  2  4  1  0
  3  5  2  0
  4  9  2  0
  5  9  1  0
  6  7  2  0
  6 10  1  0
  7 12  1  0
  8 10  2  0
  8 11  1  0
  9 18  1  0
 10 20  1  0
 11 12  2  0
 11 21  1  0
 12 24  1  0
 13 16  2  0
 13 17  1  0
 14 15  2  0
 14 23  1  0
 15 17  1  0
 15 24  1  0
 16 19  1  0
 16 23  1  0
 17 22  2  0
 18 19  2  0
  1 25  1  0
  2 26  1  0
  3 27  1  0
  4 28  1  0
  5 29  1  0
  6 30  1  0
  7 31  1  0
  8 32  1  0
 13 33  1  0
 14 34  1  0
 18 35  1  0
 19 36  1  0
 20 37  1  0
 20 38  1  0
 20 39  1  0
 21 40  1  0
 21 41  1  0
 21 42  1  0
M  END
>  <Name>  (232) 
CHEMBL3623408

>  <Comment>  (232) 
 Schrodinger Suite 2021-4.

>  <s_m_entry_id>  (232) 
1251

>  <class_value>  (232) 
0

>  <s_m_Source_Path>  (232) 
C:\Users\vinicius\Desktop

>  <s_m_Source_File>  (232) 
Ligands_Saureus_o.sdf

>  <i_m_Source_File_Index>  (232) 
143

>  <r_lp_tautomer_probability>  (232) 
1

>  <r_epik_Ionization_Penalty>  (232) 
0

>  <r_epik_State_Penalty>  (232) 
0

>  <i_epik_Tot_Q>  (232) 
0

>  <i_f3d_flags>  (232) 
0

>  <s_m_job_name>  (232) 
Saureus_o

>  <FRED Chemgauss4 score>  (232) 
-12.125969

>  <Set>  (232) 
test

>  <HBA count>  (232) 
3

>  <HBD count>  (232) 
0

>  <ExactMolWt>  (232) 
318.1255944360004

>  <NumRotatableBounds>  (232) 
6

>  <FractionCsp3>  (232) 
0.09523809523809523

>  <TPSA>  (232) 
39.44

>  <LogP_WildmanCrippen>  (232) 
5.219340000000003

>  <General_Cluster>  (232) 
4

>  <Biological_Cluster>  (232) 
2

>  <Physicochemical_Cluster>  (232) 
3

>  <Structural_Cluster>  (232) 
1

$$$$
CHEMBL3322726
     RDKit          3D

 69 74  0  0  0  0  0  0  0  0999 V2000
  111.3694   73.5529   32.3980 C   0  0  0  0  0  0  0  0  0  0  0  0
  111.5394   72.4137   31.6070 C   0  0  0  0  0  0  0  0  0  0  0  0
  111.3586   73.4668   33.7969 C   0  0  0  0  0  0  0  0  0  0  0  0
  111.7044   71.1500   32.1817 C   0  0  0  0  0  0  0  0  0  0  0  0
  107.6239   65.0016   42.0082 C   0  0  0  0  0  0  0  0  0  0  0  0
  108.1559   67.3138   42.0452 C   0  0  0  0  0  0  0  0  0  0  0  0
  111.5230   72.2058   34.3962 C   0  0  0  0  0  0  0  0  0  0  0  0
  108.3486   66.0648   41.4841 C   0  0  0  0  0  0  0  0  0  0  0  0
  106.7371   65.2139   43.0662 C   0  0  0  0  0  0  0  0  0  0  0  0
  111.5699   71.7114   35.7264 C   0  0  0  0  0  0  0  0  0  0  0  0
  111.6894   71.0959   33.5743 C   0  0  0  0  0  0  0  0  0  0  0  0
  111.7593   70.3523   35.6285 C   0  0  0  0  0  0  0  0  0  0  0  0
  106.6144   66.5037   43.5595 C   0  0  0  0  0  0  0  0  0  0  0  0
  104.9469   65.7742   45.2376 C   0  0  0  0  0  0  0  0  0  0  0  0
  109.2754   65.8707   40.3843 C   0  0  0  0  0  0  0  0  0  0  0  0
  109.7358   66.8382   39.5562 C   0  0  0  0  0  0  0  0  0  0  0  0
  110.6713   66.5899   38.4443 C   0  0  0  0  0  0  0  0  0  0  0  0
  105.9482   64.0889   43.6467 C   0  0  0  0  0  0  0  0  0  0  0  0
  111.9005   67.8270   36.5764 C   0  0  0  0  0  0  0  0  0  0  0  0
  110.6305   69.0883   37.7325 C   0  0  0  0  0  0  0  0  0  0  0  0
  107.2901   62.1540   47.2904 C   0  0  0  0  0  0  0  0  0  0  0  0
  105.3141   63.3199   48.2483 C   0  0  0  0  0  0  0  0  0  0  0  0
  108.1415   62.9035   48.3011 C   0  0  0  0  0  0  0  0  0  0  0  0
  106.2676   64.0088   49.2099 C   0  0  0  0  0  0  0  0  0  0  0  0
  111.8780   69.3503   36.8519 C   0  0  0  0  0  0  0  0  0  0  0  0
  111.4399   72.5021   36.9659 C   0  0  0  0  0  0  0  0  0  0  0  0
  104.2769   63.3939   45.3354 C   0  0  0  0  0  0  0  0  0  0  0  0
  105.1913   62.3501   45.9485 C   0  0  0  0  0  0  0  0  0  0  0  0
  107.3078   67.5587   43.0685 N   0  0  0  0  0  0  0  0  0  0  0  0
  105.7292   66.7358   44.6211 N   0  0  0  0  0  0  0  0  0  0  0  0
  105.0629   64.4706   44.7474 N   0  0  0  0  0  0  0  0  0  0  0  0
  111.0205   67.6929   37.7211 N   0  0  0  0  0  0  0  0  0  0  0  0
  106.0711   62.9914   46.9829 N   0  0  0  0  0  4  0  0  0  0  0  0
  104.1979   66.0897   46.1678 O   0  0  0  0  0  0  0  0  0  0  0  0
  111.0754   65.4506   38.2264 O   0  0  0  0  0  0  0  0  0  0  0  0
  111.8329   69.9690   34.3272 O   0  0  0  0  0  0  0  0  0  0  0  0
  107.3916   63.1720   49.4867 O   0  0  0  0  0  0  0  0  0  0  0  0
  111.2420   74.5330   31.9151 H   0  0  0  0  0  0  0  0  0  0  0  0
  111.5435   72.5130   30.5115 H   0  0  0  0  0  0  0  0  0  0  0  0
  111.2242   74.3678   34.4135 H   0  0  0  0  0  0  0  0  0  0  0  0
  111.8388   70.2471   31.5679 H   0  0  0  0  0  0  0  0  0  0  0  0
  107.7486   63.9920   41.5897 H   0  0  0  0  0  0  0  0  0  0  0  0
  108.7273   68.1590   41.6339 H   0  0  0  0  0  0  0  0  0  0  0  0
  109.6360   64.8466   40.2077 H   0  0  0  0  0  0  0  0  0  0  0  0
  109.3916   67.8696   39.7230 H   0  0  0  0  0  0  0  0  0  0  0  0
  105.3323   63.6528   42.8464 H   0  0  0  0  0  0  0  0  0  0  0  0
  106.6776   63.3795   44.0647 H   0  0  0  0  0  0  0  0  0  0  0  0
  111.4582   67.5247   35.6157 H   0  0  0  0  0  0  0  0  0  0  0  0
  112.8398   67.2611   36.4901 H   0  0  0  0  0  0  0  0  0  0  0  0
  110.6552   69.5668   38.7227 H   0  0  0  0  0  0  0  0  0  0  0  0
  109.6239   69.4177   37.4353 H   0  0  0  0  0  0  0  0  0  0  0  0
  107.8677   61.9858   46.3695 H   0  0  0  0  0  0  0  0  0  0  0  0
  106.9866   61.1791   47.6995 H   0  0  0  0  0  0  0  0  0  0  0  0
  104.9311   62.3946   48.7034 H   0  0  0  0  0  0  0  0  0  0  0  0
  104.4637   63.9794   48.0206 H   0  0  0  0  0  0  0  0  0  0  0  0
  109.0192   62.2926   48.5587 H   0  0  0  0  0  0  0  0  0  0  0  0
  108.4605   63.8586   47.8584 H   0  0  0  0  0  0  0  0  0  0  0  0
  106.6187   64.9491   48.7598 H   0  0  0  0  0  0  0  0  0  0  0  0
  105.7366   64.2135   50.1512 H   0  0  0  0  0  0  0  0  0  0  0  0
  112.7597   69.8812   37.2401 H   0  0  0  0  0  0  0  0  0  0  0  0
  111.5489   71.8391   37.8369 H   0  0  0  0  0  0  0  0  0  0  0  0
  112.2232   73.2739   36.9923 H   0  0  0  0  0  0  0  0  0  0  0  0
  110.4507   72.9825   36.9923 H   0  0  0  0  0  0  0  0  0  0  0  0
  103.6625   62.9240   44.5533 H   0  0  0  0  0  0  0  0  0  0  0  0
  103.6306   63.8105   46.1220 H   0  0  0  0  0  0  0  0  0  0  0  0
  104.5838   61.5646   46.4216 H   0  0  0  0  0  0  0  0  0  0  0  0
  105.8188   61.9081   45.1605 H   0  0  0  0  0  0  0  0  0  0  0  0
  105.6545   67.7015   44.9715 H   0  0  0  0  0  0  0  0  0  0  0  0
  106.3963   63.8788   46.5735 H   0  0  0  0  0  0  0  0  0  0  0  0
  1  2  2  0
  1  3  1  0
  2  4  1  0
  3  7  2  0
  4 11  2  0
  5  8  2  0
  5  9  1  0
  6  8  1  0
  6 29  2  0
  7 10  1  0
  7 11  1  0
  8 15  1  0
  9 13  2  0
  9 18  1  0
 10 12  2  0
 10 26  1  0
 11 36  1  0
 12 25  1  0
 12 36  1  0
 13 29  1  0
 13 30  1  0
 14 30  1  0
 14 31  1  0
 14 34  2  0
 15 16  2  0
 16 17  1  0
 17 32  1  0
 17 35  2  0
 18 31  1  0
 19 25  1  0
 19 32  1  0
 20 25  1  0
 20 32  1  0
 21 23  1  0
 21 33  1  0
 22 24  1  0
 22 33  1  0
 23 37  1  0
 24 37  1  0
 27 28  1  0
 27 31  1  0
 28 33  1  0
  1 38  1  0
  2 39  1  0
  3 40  1  0
  4 41  1  0
  5 42  1  0
  6 43  1  0
 15 44  1  0
 16 45  1  0
 18 46  1  0
 18 47  1  0
 19 48  1  0
 19 49  1  0
 20 50  1  0
 20 51  1  0
 21 52  1  0
 21 53  1  0
 22 54  1  0
 22 55  1  0
 23 56  1  0
 23 57  1  0
 24 58  1  0
 24 59  1  0
 25 60  1  0
 26 61  1  0
 26 62  1  0
 26 63  1  0
 27 64  1  0
 27 65  1  0
 28 66  1  0
 28 67  1  0
 30 68  1  0
 33 69  1  0
M  CHG  1  33   1
M  END
>  <Name>  (233) 
CHEMBL3322726

>  <Comment>  (233) 
 Schrodinger Suite 2021-4.

>  <s_m_entry_id>  (233) 
1108

>  <class_value>  (233) 
1

>  <s_m_Source_Path>  (233) 
C:\Users\vinicius\Desktop

>  <s_m_Source_File>  (233) 
Ligands_Saureus_o.sdf

>  <i_m_Source_File_Index>  (233) 
29

>  <r_epik_Ionization_Penalty>  (233) 
0.6751

>  <r_epik_State_Penalty>  (233) 
0.6956

>  <i_epik_Tot_Q>  (233) 
1

>  <i_f3d_flags>  (233) 
0

>  <s_m_job_name>  (233) 
Saureus_o

>  <FRED Chemgauss4 score>  (233) 
-8.817739

>  <Set>  (233) 
test

>  <HBA count>  (233) 
5

>  <HBD count>  (233) 
2

>  <ExactMolWt>  (233) 
502.2448809240909

>  <NumRotatableBounds>  (233) 
7

>  <FractionCsp3>  (233) 
0.39285714285714285

>  <TPSA>  (233) 
92.35000000000001

>  <LogP_WildmanCrippen>  (233) 
2.0380200000000004

>  <General_Cluster>  (233) 
1

>  <Biological_Cluster>  (233) 
1

>  <Physicochemical_Cluster>  (233) 
4

>  <Structural_Cluster>  (233) 
2

$$$$
CHEMBL109805
     RDKit          3D

 39 41  0  0  0  0  0  0  0  0999 V2000
  111.9594   65.4997   39.9398 C   0  0  0  0  0  0  0  0  0  0  0  0
  112.0224   72.5141   34.1931 C   0  0  0  0  0  0  0  0  0  0  0  0
  111.9639   66.7004   39.2300 C   0  0  0  0  0  0  0  0  0  0  0  0
  111.5036   64.3308   39.3303 C   0  0  0  0  0  0  0  0  0  0  0  0
  112.0851   72.2112   32.8344 C   0  0  0  0  0  0  0  0  0  0  0  0
  111.4303   71.6260   35.0984 C   0  0  0  0  0  0  0  0  0  0  0  0
  111.5125   66.7322   37.9106 C   0  0  0  0  0  0  0  0  0  0  0  0
  111.0521   64.3626   38.0109 C   0  0  0  0  0  0  0  0  0  0  0  0
  111.5599   71.0149   32.3376 C   0  0  0  0  0  0  0  0  0  0  0  0
  110.2388   69.3095   35.2345 C   0  0  0  0  0  0  0  0  0  0  0  0
  110.8938   70.4137   34.6208 C   0  0  0  0  0  0  0  0  0  0  0  0
  111.0566   65.5633   37.3010 C   0  0  0  0  0  0  0  0  0  0  0  0
  110.9709   70.1367   33.2542 C   0  0  0  0  0  0  0  0  0  0  0  0
  109.9362   68.4006   34.2469 C   0  0  0  0  0  0  0  0  0  0  0  0
  110.5804   65.5970   35.9091 C   0  0  0  0  0  0  0  0  0  0  0  0
  110.2535   68.2486   31.7726 C   0  0  0  0  0  0  0  0  0  0  0  0
  108.4867   66.6659   36.6493 C   0  0  0  0  0  0  0  0  0  0  0  0
  109.2584   67.0911   34.3422 C   0  0  0  0  0  0  0  0  0  0  0  0
  110.3819   68.9083   33.0561 N   0  0  0  0  0  0  0  0  0  0  0  0
  109.4874   66.4311   35.6086 N   0  0  0  0  0  0  0  0  0  0  0  0
  111.1922   64.8922   35.1071 O   0  0  0  0  0  0  0  0  0  0  0  0
  112.3153   65.4746   40.9803 H   0  0  0  0  0  0  0  0  0  0  0  0
  112.4433   73.4625   34.5585 H   0  0  0  0  0  0  0  0  0  0  0  0
  112.3234   67.6222   39.7107 H   0  0  0  0  0  0  0  0  0  0  0  0
  111.5002   63.3839   39.8901 H   0  0  0  0  0  0  0  0  0  0  0  0
  112.5553   72.9248   32.1419 H   0  0  0  0  0  0  0  0  0  0  0  0
  111.3843   71.8714   36.1697 H   0  0  0  0  0  0  0  0  0  0  0  0
  111.5160   67.6791   37.3508 H   0  0  0  0  0  0  0  0  0  0  0  0
  110.6925   63.4408   37.5303 H   0  0  0  0  0  0  0  0  0  0  0  0
  111.6078   70.7727   31.2657 H   0  0  0  0  0  0  0  0  0  0  0  0
  110.0147   69.2019   36.3060 H   0  0  0  0  0  0  0  0  0  0  0  0
  110.0455   67.1798   31.9289 H   0  0  0  0  0  0  0  0  0  0  0  0
  109.4272   68.7041   31.2072 H   0  0  0  0  0  0  0  0  0  0  0  0
  111.1904   68.3610   31.2072 H   0  0  0  0  0  0  0  0  0  0  0  0
  108.9542   66.5562   37.6389 H   0  0  0  0  0  0  0  0  0  0  0  0
  108.0818   67.6834   36.5458 H   0  0  0  0  0  0  0  0  0  0  0  0
  107.6715   65.9346   36.5458 H   0  0  0  0  0  0  0  0  0  0  0  0
  108.1765   67.2457   34.2173 H   0  0  0  0  0  0  0  0  0  0  0  0
  109.6728   66.4461   33.5534 H   0  0  0  0  0  0  0  0  0  0  0  0
  1  3  2  0
  1  4  1  0
  2  5  2  0
  2  6  1  0
  3  7  1  0
  4  8  2  0
  5  9  1  0
  6 11  2  0
  7 12  2  0
  8 12  1  0
  9 13  2  0
 10 11  1  0
 10 14  2  0
 11 13  1  0
 12 15  1  0
 13 19  1  0
 14 18  1  0
 14 19  1  0
 15 20  1  0
 15 21  2  0
 16 19  1  0
 17 20  1  0
 18 20  1  0
  1 22  1  0
  2 23  1  0
  3 24  1  0
  4 25  1  0
  5 26  1  0
  6 27  1  0
  7 28  1  0
  8 29  1  0
  9 30  1  0
 10 31  1  0
 16 32  1  0
 16 33  1  0
 16 34  1  0
 17 35  1  0
 17 36  1  0
 17 37  1  0
 18 38  1  0
 18 39  1  0
M  END
>  <Name>  (234) 
CHEMBL109805

>  <Comment>  (234) 
 Schrodinger Suite 2021-4.

>  <s_m_entry_id>  (234) 
1291

>  <class_value>  (234) 
0

>  <s_m_Source_Path>  (234) 
C:\Users\vinicius\Desktop

>  <s_m_Source_File>  (234) 
Ligands_Saureus_o.sdf

>  <i_m_Source_File_Index>  (234) 
172

>  <r_lp_tautomer_probability>  (234) 
1

>  <r_epik_Ionization_Penalty>  (234) 
0

>  <r_epik_State_Penalty>  (234) 
0

>  <i_epik_Tot_Q>  (234) 
0

>  <i_f3d_flags>  (234) 
0

>  <s_m_job_name>  (234) 
Saureus_o

>  <FRED Chemgauss4 score>  (234) 
-14.264377

>  <Set>  (234) 
test

>  <HBA count>  (234) 
2

>  <HBD count>  (234) 
0

>  <ExactMolWt>  (234) 
278.1419131960005

>  <NumRotatableBounds>  (234) 
5

>  <FractionCsp3>  (234) 
0.16666666666666666

>  <TPSA>  (234) 
25.240000000000002

>  <LogP_WildmanCrippen>  (234) 
3.4505000000000026

>  <General_Cluster>  (234) 
2

>  <Biological_Cluster>  (234) 
2

>  <Physicochemical_Cluster>  (234) 
3

>  <Structural_Cluster>  (234) 
3

$$$$
CHEMBL3623407
     RDKit          3D

 35 37  0  0  0  0  0  0  0  0999 V2000
  106.6770   63.7520   45.2181 C   0  0  0  0  0  0  0  0  0  0  0  0
  107.3678   64.2677   44.1273 C   0  0  0  0  0  0  0  0  0  0  0  0
  110.3757   66.5354   35.8388 C   0  0  0  0  0  0  0  0  0  0  0  0
  109.5714   66.6957   34.7105 C   0  0  0  0  0  0  0  0  0  0  0  0
  109.9616   69.0792   34.7710 C   0  0  0  0  0  0  0  0  0  0  0  0
  106.9640   62.4555   45.6137 C   0  0  0  0  0  0  0  0  0  0  0  0
  108.5254   62.1978   43.9482 C   0  0  0  0  0  0  0  0  0  0  0  0
  108.3114   63.4822   43.4745 C   0  0  0  0  0  0  0  0  0  0  0  0
  110.9729   67.6470   36.4333 C   0  0  0  0  0  0  0  0  0  0  0  0
  109.3644   67.9676   34.1766 C   0  0  0  0  0  0  0  0  0  0  0  0
  110.7658   68.9189   35.8993 C   0  0  0  0  0  0  0  0  0  0  0  0
  110.9812   65.0692   40.3699 C   0  0  0  0  0  0  0  0  0  0  0  0
  110.1136   67.4617   39.2547 C   0  0  0  0  0  0  0  0  0  0  0  0
  111.1603   66.8968   38.6408 C   0  0  0  0  0  0  0  0  0  0  0  0
  109.9475   65.7548   40.8681 C   0  0  0  0  0  0  0  0  0  0  0  0
  111.6775   65.6163   39.1819 C   0  0  0  0  0  0  0  0  0  0  0  0
  109.0596   63.9993   42.3154 C   0  0  0  0  0  0  0  0  0  0  0  0
  109.2148   65.2970   42.0181 C   0  0  0  0  0  0  0  0  0  0  0  0
  107.8737   61.6623   45.0047 N   0  0  0  0  0  0  0  0  0  0  0  0
  112.6314   65.0353   38.6779 O   0  0  0  0  0  0  0  0  0  0  0  0
  109.4742   66.9444   40.3564 O   0  0  0  0  0  0  0  0  0  0  0  0
  111.7569   67.4607   37.5390 O   0  0  0  0  0  0  0  0  0  0  0  0
  108.3715   68.1639   32.7845 Cl  0  0  0  0  0  0  0  0  0  0  0  0
  111.4918   70.3106   36.6149 Cl  0  0  0  0  0  0  0  0  0  0  0  0
  105.9261   64.3544   45.7504 H   0  0  0  0  0  0  0  0  0  0  0  0
  107.1687   65.2930   43.7821 H   0  0  0  0  0  0  0  0  0  0  0  0
  110.5390   65.5324   36.2598 H   0  0  0  0  0  0  0  0  0  0  0  0
  109.1004   65.8191   34.2418 H   0  0  0  0  0  0  0  0  0  0  0  0
  109.7983   70.0822   34.3499 H   0  0  0  0  0  0  0  0  0  0  0  0
  106.4180   62.0464   46.4765 H   0  0  0  0  0  0  0  0  0  0  0  0
  109.2717   61.5754   43.4328 H   0  0  0  0  0  0  0  0  0  0  0  0
  111.3062   64.1242   40.8296 H   0  0  0  0  0  0  0  0  0  0  0  0
  109.7366   68.4113   38.8471 H   0  0  0  0  0  0  0  0  0  0  0  0
  109.5263   63.2645   41.6429 H   0  0  0  0  0  0  0  0  0  0  0  0
  108.7612   66.0460   42.6839 H   0  0  0  0  0  0  0  0  0  0  0  0
  1  2  2  0
  1  6  1  0
  2  8  1  0
  3  4  2  0
  3  9  1  0
  4 10  1  0
  5 10  2  0
  5 11  1  0
  6 19  2  0
  7  8  2  0
  7 19  1  0
  8 17  1  0
  9 11  2  0
  9 22  1  0
 10 23  1  0
 11 24  1  0
 12 15  2  0
 12 16  1  0
 13 14  2  0
 13 21  1  0
 14 16  1  0
 14 22  1  0
 15 18  1  0
 15 21  1  0
 16 20  2  0
 17 18  2  0
  1 25  1  0
  2 26  1  0
  3 27  1  0
  4 28  1  0
  5 29  1  0
  6 30  1  0
  7 31  1  0
 12 32  1  0
 13 33  1  0
 17 34  1  0
 18 35  1  0
M  END
>  <Name>  (235) 
CHEMBL3623407

>  <Comment>  (235) 
 Schrodinger Suite 2021-4.

>  <s_m_entry_id>  (235) 
1221

>  <class_value>  (235) 
0

>  <s_m_Source_Path>  (235) 
C:\Users\vinicius\Desktop

>  <s_m_Source_File>  (235) 
Ligands_Saureus_o.sdf

>  <i_m_Source_File_Index>  (235) 
116

>  <r_lp_tautomer_probability>  (235) 
1

>  <r_epik_Ionization_Penalty>  (235) 
0.0023

>  <r_epik_State_Penalty>  (235) 
0.0016

>  <i_epik_Tot_Q>  (235) 
0

>  <i_f3d_flags>  (235) 
0

>  <s_m_job_name>  (235) 
Saureus_o

>  <FRED Chemgauss4 score>  (235) 
-11.681348

>  <Set>  (235) 
test

>  <HBA count>  (235) 
4

>  <HBD count>  (235) 
0

>  <ExactMolWt>  (235) 
359.01159857200025

>  <NumRotatableBounds>  (235) 
4

>  <FractionCsp3>  (235) 
0.0

>  <TPSA>  (235) 
52.33

>  <LogP_WildmanCrippen>  (235) 
5.304300000000002

>  <General_Cluster>  (235) 
4

>  <Biological_Cluster>  (235) 
2

>  <Physicochemical_Cluster>  (235) 
3

>  <Structural_Cluster>  (235) 
1

$$$$
CHEMBL3322714
     RDKit          3D

 47 51  0  0  0  0  0  0  0  0999 V2000
  110.7808   70.4055   32.0274 C   0  0  0  0  0  0  0  0  0  0  0  0
  111.3239   71.6493   32.3299 C   0  0  0  0  0  0  0  0  0  0  0  0
  110.5537   69.4651   33.0364 C   0  0  0  0  0  0  0  0  0  0  0  0
  111.6540   71.9866   33.6449 C   0  0  0  0  0  0  0  0  0  0  0  0
  109.1735   62.6994   43.8712 C   0  0  0  0  0  0  0  0  0  0  0  0
  107.8003   64.3910   42.9254 C   0  0  0  0  0  0  0  0  0  0  0  0
  108.9372   63.6064   42.8455 C   0  0  0  0  0  0  0  0  0  0  0  0
  108.2862   62.6180   44.9454 C   0  0  0  0  0  0  0  0  0  0  0  0
  110.8784   69.7803   34.3737 C   0  0  0  0  0  0  0  0  0  0  0  0
  111.4234   71.0371   34.6534 C   0  0  0  0  0  0  0  0  0  0  0  0
  107.1715   63.4557   44.9387 C   0  0  0  0  0  0  0  0  0  0  0  0
  111.1185   69.5709   36.5567 C   0  0  0  0  0  0  0  0  0  0  0  0
  106.4524   62.6439   47.1543 C   0  0  0  0  0  0  0  0  0  0  0  0
  109.8456   63.7171   41.7189 C   0  0  0  0  0  0  0  0  0  0  0  0
  109.9445   64.7772   40.8824 C   0  0  0  0  0  0  0  0  0  0  0  0
  110.8782   64.8393   39.7432 C   0  0  0  0  0  0  0  0  0  0  0  0
  108.4515   61.5895   46.0228 C   0  0  0  0  0  0  0  0  0  0  0  0
  107.8457   62.0752   47.3302 C   0  0  0  0  0  0  0  0  0  0  0  0
  110.0061   67.1728   39.1850 C   0  0  0  0  0  0  0  0  0  0  0  0
  111.5688   66.5083   37.8800 C   0  0  0  0  0  0  0  0  0  0  0  0
  110.5348   67.6440   37.8224 C   0  0  0  0  0  0  0  0  0  0  0  0
  106.9097   64.3325   43.9406 N   0  0  0  0  0  0  0  0  0  0  0  0
  110.7100   68.9520   35.4737 N   0  0  0  0  0  0  0  0  0  0  0  0
  106.2496   63.3738   45.9998 N   0  0  0  0  0  0  0  0  0  0  0  0
  110.8309   65.9929   39.0150 N   0  0  0  0  0  0  0  0  0  0  0  0
  105.6008   62.5333   48.0362 O   0  0  0  0  0  0  0  0  0  0  0  0
  111.6236   63.8914   39.5093 O   0  0  0  0  0  0  0  0  0  0  0  0
  111.0643   68.9807   37.7841 O   0  0  0  0  0  0  0  0  0  0  0  0
  111.7232   71.1572   36.3471 S   0  0  0  0  0  0  0  0  0  0  0  0
  110.5278   70.1595   30.9855 H   0  0  0  0  0  0  0  0  0  0  0  0
  111.4959   72.3772   31.5233 H   0  0  0  0  0  0  0  0  0  0  0  0
  110.1236   68.4832   32.7894 H   0  0  0  0  0  0  0  0  0  0  0  0
  112.0835   72.9706   33.8841 H   0  0  0  0  0  0  0  0  0  0  0  0
  110.0583   62.0467   43.8366 H   0  0  0  0  0  0  0  0  0  0  0  0
  107.6094   65.1068   42.1123 H   0  0  0  0  0  0  0  0  0  0  0  0
  110.5130   62.8639   41.5277 H   0  0  0  0  0  0  0  0  0  0  0  0
  109.2900   65.6426   41.0634 H   0  0  0  0  0  0  0  0  0  0  0  0
  107.9484   60.6609   45.7152 H   0  0  0  0  0  0  0  0  0  0  0  0
  109.5257   61.4099   46.1771 H   0  0  0  0  0  0  0  0  0  0  0  0
  108.4949   62.8581   47.7493 H   0  0  0  0  0  0  0  0  0  0  0  0
  107.7678   61.2079   48.0023 H   0  0  0  0  0  0  0  0  0  0  0  0
  110.2877   67.8127   40.0342 H   0  0  0  0  0  0  0  0  0  0  0  0
  108.9293   67.1041   39.3992 H   0  0  0  0  0  0  0  0  0  0  0  0
  111.5781   65.8492   36.9994 H   0  0  0  0  0  0  0  0  0  0  0  0
  112.6495   66.7072   37.9302 H   0  0  0  0  0  0  0  0  0  0  0  0
  109.8641   67.7560   36.9577 H   0  0  0  0  0  0  0  0  0  0  0  0
  105.3647   63.8931   45.9088 H   0  0  0  0  0  0  0  0  0  0  0  0
  1  2  2  0
  1  3  1  0
  2  4  1  0
  3  9  2  0
  4 10  2  0
  5  7  2  0
  5  8  1  0
  6  7  1  0
  6 22  2  0
  7 14  1  0
  8 11  2  0
  8 17  1  0
  9 10  1  0
  9 23  1  0
 10 29  1  0
 11 22  1  0
 11 24  1  0
 12 23  2  0
 12 28  1  0
 12 29  1  0
 13 18  1  0
 13 24  1  0
 13 26  2  0
 14 15  2  0
 15 16  1  0
 16 25  1  0
 16 27  2  0
 17 18  1  0
 19 21  1  0
 19 25  1  0
 20 21  1  0
 20 25  1  0
 21 28  1  0
  1 30  1  0
  2 31  1  0
  3 32  1  0
  4 33  1  0
  5 34  1  0
  6 35  1  0
 14 36  1  0
 15 37  1  0
 17 38  1  0
 17 39  1  0
 18 40  1  0
 18 41  1  0
 19 42  1  0
 19 43  1  0
 20 44  1  0
 20 45  1  0
 21 46  1  0
 24 47  1  0
M  END
>  <Name>  (236) 
CHEMBL3322714

>  <Comment>  (236) 
 Schrodinger Suite 2021-4.

>  <s_m_entry_id>  (236) 
1292

>  <class_value>  (236) 
0

>  <s_m_Source_Path>  (236) 
C:\Users\vinicius\Desktop

>  <s_m_Source_File>  (236) 
Ligands_Saureus_o.sdf

>  <i_m_Source_File_Index>  (236) 
173

>  <r_epik_Ionization_Penalty>  (236) 
0.0581

>  <r_epik_State_Penalty>  (236) 
0.0501

>  <i_epik_Tot_Q>  (236) 
0

>  <i_f3d_flags>  (236) 
0

>  <s_m_job_name>  (236) 
Saureus_o

>  <FRED Chemgauss4 score>  (236) 
-12.874064

>  <Set>  (236) 
test

>  <HBA count>  (236) 
6

>  <HBD count>  (236) 
1

>  <ExactMolWt>  (236) 
406.1099614360005

>  <NumRotatableBounds>  (236) 
4

>  <FractionCsp3>  (236) 
0.23809523809523808

>  <TPSA>  (236) 
84.42

>  <LogP_WildmanCrippen>  (236) 
2.8790000000000013

>  <General_Cluster>  (236) 
1

>  <Biological_Cluster>  (236) 
2

>  <Physicochemical_Cluster>  (236) 
1

>  <Structural_Cluster>  (236) 
2

$$$$
FULL_S11
     RDKit          3D

 52 56  0  0  0  0  0  0  0  0999 V2000
  111.4403   65.5185   33.1282 C   0  0  0  0  0  0  0  0  0  0  0  0
  110.7693   66.7101   32.8624 C   0  0  0  0  0  0  0  0  0  0  0  0
  110.5039   71.6004   33.9294 C   0  0  0  0  0  0  0  0  0  0  0  0
  111.6985   65.1201   34.4446 C   0  0  0  0  0  0  0  0  0  0  0  0
  109.5391   67.9637   41.7069 C   0  0  0  0  0  0  0  0  0  0  0  0
  108.1169   66.0110   41.6720 C   0  0  0  0  0  0  0  0  0  0  0  0
  109.8336   70.5772   34.5996 C   0  0  0  0  0  0  0  0  0  0  0  0
  110.3354   67.5398   33.9000 C   0  0  0  0  0  0  0  0  0  0  0  0
  111.6600   72.1541   34.4796 C   0  0  0  0  0  0  0  0  0  0  0  0
  108.4788   68.7273   42.1950 C   0  0  0  0  0  0  0  0  0  0  0  0
  107.0565   66.7746   42.1602 C   0  0  0  0  0  0  0  0  0  0  0  0
  111.4752   70.6614   36.3702 C   0  0  0  0  0  0  0  0  0  0  0  0
  111.2719   65.9398   35.5088 C   0  0  0  0  0  0  0  0  0  0  0  0
  109.3581   66.6055   41.4453 C   0  0  0  0  0  0  0  0  0  0  0  0
  111.3570   65.8571   36.9252 C   0  0  0  0  0  0  0  0  0  0  0  0
  110.3192   70.1077   35.8200 C   0  0  0  0  0  0  0  0  0  0  0  0
  110.5992   67.1305   35.2122 C   0  0  0  0  0  0  0  0  0  0  0  0
  107.2375   68.1327   42.4217 C   0  0  0  0  0  0  0  0  0  0  0  0
  112.1456   71.6846   35.7000 C   0  0  0  0  0  0  0  0  0  0  0  0
  110.7416   66.9754   37.4466 C   0  0  0  0  0  0  0  0  0  0  0  0
  110.4761   65.8001   40.9308 C   0  0  0  0  0  0  0  0  0  0  0  0
  111.9501   64.8181   37.8099 C   0  0  0  0  0  0  0  0  0  0  0  0
  110.5958   67.3195   38.8849 C   0  0  0  0  0  0  0  0  0  0  0  0
  112.2141   65.4095   39.2052 C   0  0  0  0  0  0  0  0  0  0  0  0
  109.5955   69.0041   36.5432 C   0  0  0  0  0  0  0  0  0  0  0  0
  110.2901   67.7408   36.4099 N   0  0  0  0  0  0  0  0  0  0  0  0
  111.0485   66.1685   39.7075 N   0  0  0  0  0  0  0  0  0  0  0  0
  110.8326   64.8525   41.6297 O   0  0  0  0  0  0  0  0  0  0  0  0
  106.2027   68.8776   42.8978 O   0  0  0  0  0  0  0  0  0  0  0  0
  113.2741   72.2245   36.2365 O   0  0  0  0  0  0  0  0  0  0  0  0
  111.7711   64.8832   32.2933 H   0  0  0  0  0  0  0  0  0  0  0  0
  110.5780   67.0026   31.8194 H   0  0  0  0  0  0  0  0  0  0  0  0
  110.1209   71.9707   32.9670 H   0  0  0  0  0  0  0  0  0  0  0  0
  112.2285   64.1776   34.6465 H   0  0  0  0  0  0  0  0  0  0  0  0
  110.5180   68.4325   41.5283 H   0  0  0  0  0  0  0  0  0  0  0  0
  107.9742   64.9400   41.4658 H   0  0  0  0  0  0  0  0  0  0  0  0
  108.9220   70.1405   34.1657 H   0  0  0  0  0  0  0  0  0  0  0  0
  109.8054   68.4811   33.6927 H   0  0  0  0  0  0  0  0  0  0  0  0
  112.1887   72.9610   33.9510 H   0  0  0  0  0  0  0  0  0  0  0  0
  108.6215   69.7983   42.4011 H   0  0  0  0  0  0  0  0  0  0  0  0
  106.0776   66.3057   42.3389 H   0  0  0  0  0  0  0  0  0  0  0  0
  111.8581   70.2911   37.3326 H   0  0  0  0  0  0  0  0  0  0  0  0
  111.2525   63.9722   37.8980 H   0  0  0  0  0  0  0  0  0  0  0  0
  112.9002   64.4720   37.3768 H   0  0  0  0  0  0  0  0  0  0  0  0
  111.2099   68.2022   39.1167 H   0  0  0  0  0  0  0  0  0  0  0  0
  109.5421   67.5431   39.1078 H   0  0  0  0  0  0  0  0  0  0  0  0
  112.4334   64.5891   39.9044 H   0  0  0  0  0  0  0  0  0  0  0  0
  113.0662   66.1009   39.1288 H   0  0  0  0  0  0  0  0  0  0  0  0
  109.5238   69.2622   37.6101 H   0  0  0  0  0  0  0  0  0  0  0  0
  108.5947   68.8974   36.0992 H   0  0  0  0  0  0  0  0  0  0  0  0
  105.3218   68.4555   43.0586 H   0  0  0  0  0  0  0  0  0  0  0  0
  113.6188   71.8913   37.1027 H   0  0  0  0  0  0  0  0  0  0  0  0
  1  2  2  0
  1  4  1  0
  2  8  1  0
  3  7  2  0
  3  9  1  0
  4 13  2  0
  5 10  2  0
  5 14  1  0
  6 11  1  0
  6 14  2  0
  7 16  1  0
  8 17  2  0
  9 19  2  0
 10 18  1  0
 11 18  2  0
 12 16  2  0
 12 19  1  0
 13 15  1  0
 13 17  1  0
 14 21  1  0
 15 20  2  0
 15 22  1  0
 16 25  1  0
 17 26  1  0
 18 29  1  0
 19 30  1  0
 20 23  1  0
 20 26  1  0
 21 27  1  0
 21 28  2  0
 22 24  1  0
 23 27  1  0
 24 27  1  0
 25 26  1  0
  1 31  1  0
  2 32  1  0
  3 33  1  0
  4 34  1  0
  5 35  1  0
  6 36  1  0
  7 37  1  0
  8 38  1  0
  9 39  1  0
 10 40  1  0
 11 41  1  0
 12 42  1  0
 22 43  1  0
 22 44  1  0
 23 45  1  0
 23 46  1  0
 24 47  1  0
 24 48  1  0
 25 49  1  0
 25 50  1  0
 29 51  1  0
 30 52  1  0
M  END
>  <Name>  (237) 
FULL_S11

>  <Comment>  (237) 
 Schrodinger Suite 2021-4.

>  <s_m_entry_id>  (237) 
1379

>  <class_value>  (237) 
1

>  <s_m_Source_Path>  (237) 
C:\Users\vinicius\Desktop

>  <s_m_Source_File>  (237) 
Ligands_Saureus_o.sdf

>  <i_m_Source_File_Index>  (237) 
224

>  <r_lp_tautomer_probability>  (237) 
0.99999999999473

>  <r_epik_Ionization_Penalty>  (237) 
0.0162

>  <r_epik_State_Penalty>  (237) 
0.0114

>  <i_epik_Tot_Q>  (237) 
0

>  <i_f3d_flags>  (237) 
0

>  <s_m_job_name>  (237) 
Saureus_o

>  <FRED Chemgauss4 score>  (237) 
-12.471069

>  <Set>  (237) 
test

>  <HBA count>  (237) 
4

>  <HBD count>  (237) 
2

>  <ExactMolWt>  (237) 
398.1630425640006

>  <NumRotatableBounds>  (237) 
5

>  <FractionCsp3>  (237) 
0.16

>  <TPSA>  (237) 
65.7

>  <LogP_WildmanCrippen>  (237) 
4.299300000000004

>  <General_Cluster>  (237) 
3

>  <Biological_Cluster>  (237) 
1

>  <Physicochemical_Cluster>  (237) 
1

>  <Structural_Cluster>  (237) 
4

$$$$
CHEMBL3621750
     RDKit          3D

 38 40  0  0  0  0  0  0  0  0999 V2000
  106.1360   62.9053   44.4884 C   0  0  0  0  0  0  0  0  0  0  0  0
  107.3039   62.2994   44.0252 C   0  0  0  0  0  0  0  0  0  0  0  0
  105.7649   64.1618   44.0096 C   0  0  0  0  0  0  0  0  0  0  0  0
  110.7680   70.2115   35.8138 C   0  0  0  0  0  0  0  0  0  0  0  0
  110.0512   69.4892   34.8598 C   0  0  0  0  0  0  0  0  0  0  0  0
  108.1009   62.9501   43.0833 C   0  0  0  0  0  0  0  0  0  0  0  0
  106.5619   64.8125   43.0677 C   0  0  0  0  0  0  0  0  0  0  0  0
  111.5499   69.5406   36.7542 C   0  0  0  0  0  0  0  0  0  0  0  0
  111.4333   64.4656   39.5111 C   0  0  0  0  0  0  0  0  0  0  0  0
  110.7508   67.1031   39.3582 C   0  0  0  0  0  0  0  0  0  0  0  0
  110.1163   68.0959   34.8462 C   0  0  0  0  0  0  0  0  0  0  0  0
  112.1069   65.2939   38.6203 C   0  0  0  0  0  0  0  0  0  0  0  0
  107.7298   64.2067   42.6046 C   0  0  0  0  0  0  0  0  0  0  0  0
  111.6149   68.1473   36.7405 C   0  0  0  0  0  0  0  0  0  0  0  0
  111.7652   66.6390   38.5363 C   0  0  0  0  0  0  0  0  0  0  0  0
  110.8982   67.4249   35.7865 C   0  0  0  0  0  0  0  0  0  0  0  0
  110.4339   65.0269   40.2895 C   0  0  0  0  0  0  0  0  0  0  0  0
  109.6889   64.1687   41.2569 C   0  0  0  0  0  0  0  0  0  0  0  0
  110.0739   66.3289   40.2357 N   0  0  0  0  0  0  0  0  0  0  0  0
  109.3691   67.3968   33.8560 N   0  0  0  0  0  4  0  0  0  0  0  0
  113.0363   64.8027   37.8853 O   0  0  0  0  0  1  0  0  0  0  0  0
  109.9112   67.1470   32.7544 O   0  0  0  0  0  1  0  0  0  0  0  0
  108.1927   67.0537   34.1173 O   0  0  0  0  0  0  0  0  0  0  0  0
  112.3888   67.5227   37.6733 O   0  0  0  0  0  0  0  0  0  0  0  0
  108.5132   64.8470   41.6805 O   0  0  0  0  0  0  0  0  0  0  0  0
  110.9926   65.6938   35.7869 Cl  0  0  0  0  0  0  0  0  0  0  0  0
  105.5076   62.3922   45.2313 H   0  0  0  0  0  0  0  0  0  0  0  0
  107.5964   61.3085   44.4027 H   0  0  0  0  0  0  0  0  0  0  0  0
  104.8438   64.6395   44.3748 H   0  0  0  0  0  0  0  0  0  0  0  0
  110.7167   71.3102   35.8246 H   0  0  0  0  0  0  0  0  0  0  0  0
  109.4346   70.0183   34.1182 H   0  0  0  0  0  0  0  0  0  0  0  0
  109.0220   62.4724   42.7180 H   0  0  0  0  0  0  0  0  0  0  0  0
  106.2693   65.8034   42.6902 H   0  0  0  0  0  0  0  0  0  0  0  0
  112.1152   70.1102   37.5065 H   0  0  0  0  0  0  0  0  0  0  0  0
  111.6859   63.3983   39.5952 H   0  0  0  0  0  0  0  0  0  0  0  0
  110.4795   68.1671   39.2926 H   0  0  0  0  0  0  0  0  0  0  0  0
  109.4114   63.2222   40.7700 H   0  0  0  0  0  0  0  0  0  0  0  0
  110.3262   63.9581   42.1284 H   0  0  0  0  0  0  0  0  0  0  0  0
  1  2  2  0
  1  3  1  0
  2  6  1  0
  3  7  2  0
  4  5  2  0
  4  8  1  0
  5 11  1  0
  6 13  2  0
  7 13  1  0
  8 14  2  0
  9 12  2  0
  9 17  1  0
 10 15  2  0
 10 19  1  0
 11 16  2  0
 11 20  1  0
 12 15  1  0
 12 21  1  0
 13 25  1  0
 14 16  1  0
 14 24  1  0
 15 24  1  0
 16 26  1  0
 17 18  1  0
 17 19  2  0
 18 25  1  0
 20 22  1  0
 20 23  2  0
  1 27  1  0
  2 28  1  0
  3 29  1  0
  4 30  1  0
  5 31  1  0
  6 32  1  0
  7 33  1  0
  8 34  1  0
  9 35  1  0
 10 36  1  0
 18 37  1  0
 18 38  1  0
M  CHG  3  20   1  21  -1  22  -1
M  END
>  <Name>  (238) 
CHEMBL3621750

>  <Comment>  (238) 
 Schrodinger Suite 2021-4.

>  <s_m_entry_id>  (238) 
1267

>  <class_value>  (238) 
0

>  <s_m_Source_Path>  (238) 
C:\Users\vinicius\Desktop

>  <s_m_Source_File>  (238) 
Ligands_Saureus_o.sdf

>  <i_m_Source_File_Index>  (238) 
157

>  <r_lp_tautomer_probability>  (238) 
1

>  <r_epik_Ionization_Penalty>  (238) 
1.7794

>  <r_epik_State_Penalty>  (238) 
1.2893

>  <i_epik_Tot_Q>  (238) 
-1

>  <i_f3d_flags>  (238) 
0

>  <s_m_job_name>  (238) 
Saureus_o

>  <FRED Chemgauss4 score>  (238) 
-13.030113

>  <Set>  (238) 
test

>  <HBA count>  (238) 
6

>  <HBD count>  (238) 
0

>  <ExactMolWt>  (238) 
371.0440227439102

>  <NumRotatableBounds>  (238) 
6

>  <FractionCsp3>  (238) 
0.05555555555555555

>  <TPSA>  (238) 
97.55000000000001

>  <LogP_WildmanCrippen>  (238) 
4.088100000000002

>  <General_Cluster>  (238) 
1

>  <Biological_Cluster>  (238) 
2

>  <Physicochemical_Cluster>  (238) 
1

>  <Structural_Cluster>  (238) 
5

$$$$
CHEMBL320570
     RDKit          3D

 40 42  0  0  0  0  0  0  0  0999 V2000
  112.0442   72.6988   33.2068 C   0  0  0  0  0  0  0  0  0  0  0  0
  112.2708   72.7711   34.5799 C   0  0  0  0  0  0  0  0  0  0  0  0
  111.4198   71.5809   32.6418 C   0  0  0  0  0  0  0  0  0  0  0  0
  112.5303   65.7449   36.8523 C   0  0  0  0  0  0  0  0  0  0  0  0
  111.8820   71.7321   35.4303 C   0  0  0  0  0  0  0  0  0  0  0  0
  112.5610   65.5812   38.2328 C   0  0  0  0  0  0  0  0  0  0  0  0
  110.3775   69.2703   33.2574 C   0  0  0  0  0  0  0  0  0  0  0  0
  110.3856   64.7170   36.8304 C   0  0  0  0  0  0  0  0  0  0  0  0
  111.0190   70.5210   33.4792 C   0  0  0  0  0  0  0  0  0  0  0  0
  111.4255   65.3073   36.1304 C   0  0  0  0  0  0  0  0  0  0  0  0
  111.2588   70.6208   34.8514 C   0  0  0  0  0  0  0  0  0  0  0  0
  110.2432   68.6465   34.4763 C   0  0  0  0  0  0  0  0  0  0  0  0
  111.4702   64.9788   38.8387 C   0  0  0  0  0  0  0  0  0  0  0  0
  111.3626   65.4682   34.6691 C   0  0  0  0  0  0  0  0  0  0  0  0
  110.8286   69.1715   36.8486 C   0  0  0  0  0  0  0  0  0  0  0  0
  109.8227   65.9107   32.7964 C   0  0  0  0  0  0  0  0  0  0  0  0
  109.6499   67.3343   34.8069 C   0  0  0  0  0  0  0  0  0  0  0  0
  110.3795   64.5409   38.1708 N   0  0  0  0  0  0  0  0  0  0  0  0
  110.7774   69.4690   35.4316 N   0  0  0  0  0  0  0  0  0  0  0  0
  111.5174   64.8178   40.2458 N   0  0  0  0  0  0  0  0  0  0  0  0
  110.3092   66.2351   34.1372 N   0  0  0  0  0  0  0  0  0  0  0  0
  112.2551   64.9213   34.0222 O   0  0  0  0  0  0  0  0  0  0  0  0
  112.3598   73.5302   32.5593 H   0  0  0  0  0  0  0  0  0  0  0  0
  112.7634   73.6598   35.0012 H   0  0  0  0  0  0  0  0  0  0  0  0
  111.2441   71.5304   31.5571 H   0  0  0  0  0  0  0  0  0  0  0  0
  113.3766   66.2187   36.3334 H   0  0  0  0  0  0  0  0  0  0  0  0
  112.0593   71.7860   36.5146 H   0  0  0  0  0  0  0  0  0  0  0  0
  113.4240   65.9193   38.8252 H   0  0  0  0  0  0  0  0  0  0  0  0
  110.0481   68.8735   32.2858 H   0  0  0  0  0  0  0  0  0  0  0  0
  109.5111   64.3703   36.2603 H   0  0  0  0  0  0  0  0  0  0  0  0
  110.6695   70.0958   37.4233 H   0  0  0  0  0  0  0  0  0  0  0  0
  110.0424   68.4441   37.0992 H   0  0  0  0  0  0  0  0  0  0  0  0
  111.8127   68.7487   37.0992 H   0  0  0  0  0  0  0  0  0  0  0  0
  108.9098   65.3020   32.8749 H   0  0  0  0  0  0  0  0  0  0  0  0
  109.5979   66.8403   32.2530 H   0  0  0  0  0  0  0  0  0  0  0  0
  110.5945   65.3458   32.2530 H   0  0  0  0  0  0  0  0  0  0  0  0
  109.7241   67.1790   35.8933 H   0  0  0  0  0  0  0  0  0  0  0  0
  108.6039   67.3492   34.4667 H   0  0  0  0  0  0  0  0  0  0  0  0
  110.7296   64.3753   40.7402 H   0  0  0  0  0  0  0  0  0  0  0  0
  112.3395   65.1433   40.7741 H   0  0  0  0  0  0  0  0  0  0  0  0
  1  2  2  0
  1  3  1  0
  2  5  1  0
  3  9  2  0
  4  6  2  0
  4 10  1  0
  5 11  2  0
  6 13  1  0
  7  9  1  0
  7 12  2  0
  8 10  2  0
  8 18  1  0
  9 11  1  0
 10 14  1  0
 11 19  1  0
 12 17  1  0
 12 19  1  0
 13 18  2  0
 13 20  1  0
 14 21  1  0
 14 22  2  0
 15 19  1  0
 16 21  1  0
 17 21  1  0
  1 23  1  0
  2 24  1  0
  3 25  1  0
  4 26  1  0
  5 27  1  0
  6 28  1  0
  7 29  1  0
  8 30  1  0
 15 31  1  0
 15 32  1  0
 15 33  1  0
 16 34  1  0
 16 35  1  0
 16 36  1  0
 17 37  1  0
 17 38  1  0
 20 39  1  0
 20 40  1  0
M  END
>  <Name>  (239) 
CHEMBL320570

>  <Comment>  (239) 
 Schrodinger Suite 2021-4.

>  <s_m_entry_id>  (239) 
1289

>  <class_value>  (239) 
0

>  <s_m_Source_Path>  (239) 
C:\Users\vinicius\Desktop

>  <s_m_Source_File>  (239) 
Ligands_Saureus_o.sdf

>  <i_m_Source_File_Index>  (239) 
170

>  <r_lp_tautomer_probability>  (239) 
0.999999772200052

>  <r_epik_Ionization_Penalty>  (239) 
0.0026

>  <r_epik_State_Penalty>  (239) 
0.0018

>  <i_epik_Tot_Q>  (239) 
0

>  <i_f3d_flags>  (239) 
0

>  <s_m_job_name>  (239) 
Saureus_o

>  <FRED Chemgauss4 score>  (239) 
-13.778484

>  <Set>  (239) 
test

>  <HBA count>  (239) 
4

>  <HBD count>  (239) 
1

>  <ExactMolWt>  (239) 
294.14806119600047

>  <NumRotatableBounds>  (239) 
6

>  <FractionCsp3>  (239) 
0.17647058823529413

>  <TPSA>  (239) 
64.15

>  <LogP_WildmanCrippen>  (239) 
2.4276999999999997

>  <General_Cluster>  (239) 
2

>  <Biological_Cluster>  (239) 
2

>  <Physicochemical_Cluster>  (239) 
3

>  <Structural_Cluster>  (239) 
3

$$$$
CHEMBL567520
     RDKit          3D

 52 55  0  0  0  0  0  0  0  0999 V2000
  111.9779   72.9167   35.7421 C   0  0  0  0  0  0  0  0  0  0  0  0
  112.1820   72.1753   36.9087 C   0  0  0  0  0  0  0  0  0  0  0  0
  111.3683   72.3427   34.6181 C   0  0  0  0  0  0  0  0  0  0  0  0
  111.7862   70.8373   36.9963 C   0  0  0  0  0  0  0  0  0  0  0  0
  109.8048   66.4589   38.9826 C   0  0  0  0  0  0  0  0  0  0  0  0
  112.0589   66.2207   39.6421 C   0  0  0  0  0  0  0  0  0  0  0  0
  110.9619   70.9984   34.6840 C   0  0  0  0  0  0  0  0  0  0  0  0
  111.1320   66.2702   38.6259 C   0  0  0  0  0  0  0  0  0  0  0  0
  110.3332   70.0825   33.7999 C   0  0  0  0  0  0  0  0  0  0  0  0
  109.4243   66.5862   40.3295 C   0  0  0  0  0  0  0  0  0  0  0  0
  111.1828   70.2944   35.8633 C   0  0  0  0  0  0  0  0  0  0  0  0
  110.2139   68.8979   34.4891 C   0  0  0  0  0  0  0  0  0  0  0  0
  110.4354   66.4674   41.3016 C   0  0  0  0  0  0  0  0  0  0  0  0
  111.5313   66.1534   37.2360 C   0  0  0  0  0  0  0  0  0  0  0  0
  110.7097   65.8306   36.2088 C   0  0  0  0  0  0  0  0  0  0  0  0
  111.2493   65.7095   34.8223 C   0  0  0  0  0  0  0  0  0  0  0  0
  107.7608   66.8646   43.0549 C   0  0  0  0  0  0  0  0  0  0  0  0
  107.7336   67.6770   41.7678 C   0  0  0  0  0  0  0  0  0  0  0  0
  108.9272   65.8933   43.1747 C   0  0  0  0  0  0  0  0  0  0  0  0
  109.8934   70.3457   32.4163 C   0  0  0  0  0  0  0  0  0  0  0  0
  111.1503   66.4928   32.4871 C   0  0  0  0  0  0  0  0  0  0  0  0
  109.6478   67.5534   34.1343 C   0  0  0  0  0  0  0  0  0  0  0  0
  111.7431   66.3176   40.9510 N   0  0  0  0  0  0  0  0  0  0  0  0
  108.0951   66.8857   40.6094 N   0  0  0  0  0  0  0  0  0  0  0  0
  110.1650   66.4536   42.6678 N   0  0  0  0  0  0  0  0  0  0  0  0
  110.6969   66.5706   33.8698 N   0  0  0  0  0  0  0  0  0  0  0  0
  112.1135   64.8676   34.5734 O   0  0  0  0  0  0  0  0  0  0  0  0
  110.7266   69.0160   35.7417 O   0  0  0  0  0  0  0  0  0  0  0  0
  112.3008   73.9676   35.7052 H   0  0  0  0  0  0  0  0  0  0  0  0
  112.6632   72.6534   37.7746 H   0  0  0  0  0  0  0  0  0  0  0  0
  111.2110   72.9322   33.7028 H   0  0  0  0  0  0  0  0  0  0  0  0
  111.9426   70.2451   37.9100 H   0  0  0  0  0  0  0  0  0  0  0  0
  109.0364   66.5098   38.1971 H   0  0  0  0  0  0  0  0  0  0  0  0
  113.1178   66.0950   39.3722 H   0  0  0  0  0  0  0  0  0  0  0  0
  112.5882   66.3426   36.9968 H   0  0  0  0  0  0  0  0  0  0  0  0
  109.6400   65.6569   36.3971 H   0  0  0  0  0  0  0  0  0  0  0  0
  107.8118   67.5660   43.9008 H   0  0  0  0  0  0  0  0  0  0  0  0
  106.8475   66.2515   43.0524 H   0  0  0  0  0  0  0  0  0  0  0  0
  106.7183   68.0742   41.6218 H   0  0  0  0  0  0  0  0  0  0  0  0
  108.4720   68.4865   41.8656 H   0  0  0  0  0  0  0  0  0  0  0  0
  109.0643   65.6344   44.2350 H   0  0  0  0  0  0  0  0  0  0  0  0
  108.6883   65.0050   42.5715 H   0  0  0  0  0  0  0  0  0  0  0  0
  108.9496   70.9105   32.4327 H   0  0  0  0  0  0  0  0  0  0  0  0
  110.6626   70.9321   31.8923 H   0  0  0  0  0  0  0  0  0  0  0  0
  109.7401   69.3907   31.8923 H   0  0  0  0  0  0  0  0  0  0  0  0
  112.2343   66.3068   32.4666 H   0  0  0  0  0  0  0  0  0  0  0  0
  110.6275   65.6712   31.9755 H   0  0  0  0  0  0  0  0  0  0  0  0
  110.9313   67.4416   31.9755 H   0  0  0  0  0  0  0  0  0  0  0  0
  109.0293   67.1963   34.9710 H   0  0  0  0  0  0  0  0  0  0  0  0
  109.0498   67.6673   33.2181 H   0  0  0  0  0  0  0  0  0  0  0  0
  107.3552   66.5389   39.9823 H   0  0  0  0  0  0  0  0  0  0  0  0
  110.8528   66.8463   43.3263 H   0  0  0  0  0  0  0  0  0  0  0  0
  1  2  2  0
  1  3  1  0
  2  4  1  0
  3  7  2  0
  4 11  2  0
  5  8  2  0
  5 10  1  0
  6  8  1  0
  6 23  2  0
  7  9  1  0
  7 11  1  0
  8 14  1  0
  9 12  2  0
  9 20  1  0
 10 13  2  0
 10 24  1  0
 11 28  1  0
 12 22  1  0
 12 28  1  0
 13 23  1  0
 13 25  1  0
 14 15  2  0
 15 16  1  0
 16 26  1  0
 16 27  2  0
 17 18  1  0
 17 19  1  0
 18 24  1  0
 19 25  1  0
 21 26  1  0
 22 26  1  0
  1 29  1  0
  2 30  1  0
  3 31  1  0
  4 32  1  0
  5 33  1  0
  6 34  1  0
 14 35  1  0
 15 36  1  0
 17 37  1  0
 17 38  1  0
 18 39  1  0
 18 40  1  0
 19 41  1  0
 19 42  1  0
 20 43  1  0
 20 44  1  0
 20 45  1  0
 21 46  1  0
 21 47  1  0
 21 48  1  0
 22 49  1  0
 22 50  1  0
 24 51  1  0
 25 52  1  0
M  END
>  <Name>  (240) 
CHEMBL567520

>  <Comment>  (240) 
 Schrodinger Suite 2021-4.

>  <s_m_entry_id>  (240) 
1349

>  <class_value>  (240) 
1

>  <s_m_Source_Path>  (240) 
C:\Users\vinicius\Desktop

>  <s_m_Source_File>  (240) 
Ligands_Saureus_o.sdf

>  <i_m_Source_File_Index>  (240) 
205

>  <r_epik_Ionization_Penalty>  (240) 
0.4511

>  <r_epik_State_Penalty>  (240) 
0.4518

>  <i_epik_Tot_Q>  (240) 
0

>  <i_f3d_flags>  (240) 
0

>  <s_m_job_name>  (240) 
Saureus_o

>  <FRED Chemgauss4 score>  (240) 
-16.969379

>  <Set>  (240) 
test

>  <HBA count>  (240) 
5

>  <HBD count>  (240) 
2

>  <ExactMolWt>  (240) 
376.1899260080007

>  <NumRotatableBounds>  (240) 
6

>  <FractionCsp3>  (240) 
0.2727272727272727

>  <TPSA>  (240) 
70.4

>  <LogP_WildmanCrippen>  (240) 
4.035520000000003

>  <General_Cluster>  (240) 
1

>  <Biological_Cluster>  (240) 
1

>  <Physicochemical_Cluster>  (240) 
1

>  <Structural_Cluster>  (240) 
2

$$$$
CHEMBL65220
     RDKit          3D

 35 37  0  0  0  0  0  0  0  0999 V2000
  107.3169   67.9316   42.3220 C   0  0  0  0  0  0  0  0  0  0  0  0
  108.5141   68.4981   41.8847 C   0  0  0  0  0  0  0  0  0  0  0  0
  107.1843   66.5445   42.3867 C   0  0  0  0  0  0  0  0  0  0  0  0
  110.1417   67.8409   36.3655 C   0  0  0  0  0  0  0  0  0  0  0  0
  110.9324   65.8920   35.1765 C   0  0  0  0  0  0  0  0  0  0  0  0
  109.5787   67.6776   41.5119 C   0  0  0  0  0  0  0  0  0  0  0  0
  108.2489   65.7240   42.0139 C   0  0  0  0  0  0  0  0  0  0  0  0
  110.0029   68.5223   35.1564 C   0  0  0  0  0  0  0  0  0  0  0  0
  110.7935   66.5734   33.9674 C   0  0  0  0  0  0  0  0  0  0  0  0
  110.4566   66.3507   38.8569 C   0  0  0  0  0  0  0  0  0  0  0  0
  111.1785   64.2746   39.0148 C   0  0  0  0  0  0  0  0  0  0  0  0
  110.6065   66.5257   36.3756 C   0  0  0  0  0  0  0  0  0  0  0  0
  109.4462   66.2905   41.5765 C   0  0  0  0  0  0  0  0  0  0  0  0
  110.3288   67.8886   33.9573 C   0  0  0  0  0  0  0  0  0  0  0  0
  110.7486   65.8244   37.6207 C   0  0  0  0  0  0  0  0  0  0  0  0
  110.5942   65.4048   41.1743 C   0  0  0  0  0  0  0  0  0  0  0  0
  110.1788   68.6175   32.6650 C   0  0  0  0  0  0  0  0  0  0  0  0
  111.1971   64.5316   37.7258 N   0  0  0  0  0  0  0  0  0  0  0  0
  110.7366   65.3462   39.7399 N   0  0  0  0  0  0  0  0  0  0  0  0
  109.7137   69.8941   32.8072 F   0  0  0  0  0  0  0  0  0  0  0  0
  111.3468   68.7400   31.9675 F   0  0  0  0  0  0  0  0  0  0  0  0
  109.3066   68.0031   31.8136 F   0  0  0  0  0  0  0  0  0  0  0  0
  106.4773   68.5787   42.6159 H   0  0  0  0  0  0  0  0  0  0  0  0
  108.6187   69.5919   41.8338 H   0  0  0  0  0  0  0  0  0  0  0  0
  106.2402   66.0977   42.7317 H   0  0  0  0  0  0  0  0  0  0  0  0
  109.8846   68.3406   37.3111 H   0  0  0  0  0  0  0  0  0  0  0  0
  111.2989   64.8549   35.1844 H   0  0  0  0  0  0  0  0  0  0  0  0
  110.5228   68.1244   41.1669 H   0  0  0  0  0  0  0  0  0  0  0  0
  108.1443   64.6302   42.0648 H   0  0  0  0  0  0  0  0  0  0  0  0
  109.6364   69.5594   35.1485 H   0  0  0  0  0  0  0  0  0  0  0  0
  111.0504   66.0736   33.0218 H   0  0  0  0  0  0  0  0  0  0  0  0
  110.0803   67.3589   39.0850 H   0  0  0  0  0  0  0  0  0  0  0  0
  111.4817   63.3139   39.4565 H   0  0  0  0  0  0  0  0  0  0  0  0
  111.5226   65.8023   41.6101 H   0  0  0  0  0  0  0  0  0  0  0  0
  110.3932   64.3885   41.5440 H   0  0  0  0  0  0  0  0  0  0  0  0
  1  2  2  0
  1  3  1  0
  2  6  1  0
  3  7  2  0
  4  8  2  0
  4 12  1  0
  5  9  1  0
  5 12  2  0
  6 13  2  0
  7 13  1  0
  8 14  1  0
  9 14  2  0
 10 15  2  0
 10 19  1  0
 11 18  2  0
 11 19  1  0
 12 15  1  0
 13 16  1  0
 14 17  1  0
 15 18  1  0
 16 19  1  0
 17 20  1  0
 17 21  1  0
 17 22  1  0
  1 23  1  0
  2 24  1  0
  3 25  1  0
  4 26  1  0
  5 27  1  0
  6 28  1  0
  7 29  1  0
  8 30  1  0
  9 31  1  0
 10 32  1  0
 11 33  1  0
 16 34  1  0
 16 35  1  0
M  END
>  <Name>  (241) 
CHEMBL65220

>  <Comment>  (241) 
 Schrodinger Suite 2021-4.

>  <s_m_entry_id>  (241) 
1334

>  <class_value>  (241) 
0

>  <s_m_Source_Path>  (241) 
C:\Users\vinicius\Desktop

>  <s_m_Source_File>  (241) 
Ligands_Saureus_o.sdf

>  <i_m_Source_File_Index>  (241) 
197

>  <r_lp_tautomer_probability>  (241) 
1

>  <r_epik_Ionization_Penalty>  (241) 
0.4254

>  <r_epik_State_Penalty>  (241) 
0.4264

>  <i_epik_Tot_Q>  (241) 
0

>  <i_f3d_flags>  (241) 
0

>  <s_m_job_name>  (241) 
Saureus_o

>  <FRED Chemgauss4 score>  (241) 
-13.208189

>  <Set>  (241) 
test

>  <HBA count>  (241) 
2

>  <HBD count>  (241) 
0

>  <ExactMolWt>  (241) 
302.10308307600036

>  <NumRotatableBounds>  (241) 
3

>  <FractionCsp3>  (241) 
0.11764705882352941

>  <TPSA>  (241) 
17.82

>  <LogP_WildmanCrippen>  (241) 
4.617200000000002

>  <General_Cluster>  (241) 
4

>  <Biological_Cluster>  (241) 
2

>  <Physicochemical_Cluster>  (241) 
3

>  <Structural_Cluster>  (241) 
1

$$$$
CHEMBL72286
     RDKit          3D

 52 56  0  0  0  0  0  0  0  0999 V2000
  111.3232   65.5381   33.4882 C   0  0  0  0  0  0  0  0  0  0  0  0
  108.1726   68.5820   42.8137 C   0  0  0  0  0  0  0  0  0  0  0  0
  110.6701   66.7154   33.1297 C   0  0  0  0  0  0  0  0  0  0  0  0
  107.1049   67.9815   42.1466 C   0  0  0  0  0  0  0  0  0  0  0  0
  111.6916   65.2995   34.8170 C   0  0  0  0  0  0  0  0  0  0  0  0
  109.4823   68.2085   42.5122 C   0  0  0  0  0  0  0  0  0  0  0  0
  111.8366   71.0450   36.0115 C   0  0  0  0  0  0  0  0  0  0  0  0
  110.0321   70.8112   34.4222 C   0  0  0  0  0  0  0  0  0  0  0  0
  110.3643   67.6893   34.0843 C   0  0  0  0  0  0  0  0  0  0  0  0
  107.3469   67.0073   41.1781 C   0  0  0  0  0  0  0  0  0  0  0  0
  112.4741   71.9432   35.1556 C   0  0  0  0  0  0  0  0  0  0  0  0
  110.6696   71.7094   33.5663 C   0  0  0  0  0  0  0  0  0  0  0  0
  111.3953   66.2665   35.7984 C   0  0  0  0  0  0  0  0  0  0  0  0
  109.7242   67.2343   41.5437 C   0  0  0  0  0  0  0  0  0  0  0  0
  111.6115   66.3613   37.2001 C   0  0  0  0  0  0  0  0  0  0  0  0
  110.6156   70.4790   35.6448 C   0  0  0  0  0  0  0  0  0  0  0  0
  110.7375   67.4391   35.4099 C   0  0  0  0  0  0  0  0  0  0  0  0
  111.8906   72.2754   33.9330 C   0  0  0  0  0  0  0  0  0  0  0  0
  108.6566   66.6337   40.8766 C   0  0  0  0  0  0  0  0  0  0  0  0
  111.0859   67.5637   37.6234 C   0  0  0  0  0  0  0  0  0  0  0  0
  111.1128   66.8552   41.2413 C   0  0  0  0  0  0  0  0  0  0  0  0
  112.2508   65.4177   38.1565 C   0  0  0  0  0  0  0  0  0  0  0  0
  111.0885   68.0945   39.0115 C   0  0  0  0  0  0  0  0  0  0  0  0
  112.6655   66.1695   39.4329 C   0  0  0  0  0  0  0  0  0  0  0  0
  109.9275   69.5105   36.5683 C   0  0  0  0  0  0  0  0  0  0  0  0
  110.5639   68.2103   36.5400 N   0  0  0  0  0  0  0  0  0  0  0  0
  111.5786   67.0384   39.9338 N   0  0  0  0  0  0  0  0  0  0  0  0
  111.7714   66.4047   42.1777 O   0  0  0  0  0  0  0  0  0  0  0  0
  112.5122   73.1528   33.0986 O   0  0  0  0  0  0  0  0  0  0  0  0
  108.8727   65.6814   39.9257 O   0  0  0  0  0  0  0  0  0  0  0  0
  111.5520   64.7872   32.7176 H   0  0  0  0  0  0  0  0  0  0  0  0
  107.9818   69.3501   43.5776 H   0  0  0  0  0  0  0  0  0  0  0  0
  110.3907   66.8810   32.0787 H   0  0  0  0  0  0  0  0  0  0  0  0
  106.0721   68.2762   42.3843 H   0  0  0  0  0  0  0  0  0  0  0  0
  112.2068   64.3674   35.0924 H   0  0  0  0  0  0  0  0  0  0  0  0
  110.3243   68.6822   43.0382 H   0  0  0  0  0  0  0  0  0  0  0  0
  112.2968   70.7830   36.9757 H   0  0  0  0  0  0  0  0  0  0  0  0
  109.0692   70.3649   34.1330 H   0  0  0  0  0  0  0  0  0  0  0  0
  109.8486   68.6195   33.8038 H   0  0  0  0  0  0  0  0  0  0  0  0
  106.5049   66.5336   40.6521 H   0  0  0  0  0  0  0  0  0  0  0  0
  113.4370   72.3895   35.4448 H   0  0  0  0  0  0  0  0  0  0  0  0
  110.2094   71.9714   32.6021 H   0  0  0  0  0  0  0  0  0  0  0  0
  111.5369   64.6224   38.4169 H   0  0  0  0  0  0  0  0  0  0  0  0
  113.1434   64.9765   37.6890 H   0  0  0  0  0  0  0  0  0  0  0  0
  111.7507   68.9709   39.0697 H   0  0  0  0  0  0  0  0  0  0  0  0
  110.0687   68.3921   39.2968 H   0  0  0  0  0  0  0  0  0  0  0  0
  112.9226   65.4358   40.2111 H   0  0  0  0  0  0  0  0  0  0  0  0
  113.5291   66.8062   39.1904 H   0  0  0  0  0  0  0  0  0  0  0  0
  109.9659   69.9055   37.5942 H   0  0  0  0  0  0  0  0  0  0  0  0
  108.8862   69.3935   36.2337 H   0  0  0  0  0  0  0  0  0  0  0  0
  112.0982   73.3887   32.2308 H   0  0  0  0  0  0  0  0  0  0  0  0
  109.7970   65.4065   39.7015 H   0  0  0  0  0  0  0  0  0  0  0  0
  1  3  2  0
  1  5  1  0
  2  4  2  0
  2  6  1  0
  3  9  1  0
  4 10  1  0
  5 13  2  0
  6 14  2  0
  7 11  2  0
  7 16  1  0
  8 12  1  0
  8 16  2  0
  9 17  2  0
 10 19  2  0
 11 18  1  0
 12 18  2  0
 13 15  1  0
 13 17  1  0
 14 19  1  0
 14 21  1  0
 15 20  2  0
 15 22  1  0
 16 25  1  0
 17 26  1  0
 18 29  1  0
 19 30  1  0
 20 23  1  0
 20 26  1  0
 21 27  1  0
 21 28  2  0
 22 24  1  0
 23 27  1  0
 24 27  1  0
 25 26  1  0
  1 31  1  0
  2 32  1  0
  3 33  1  0
  4 34  1  0
  5 35  1  0
  6 36  1  0
  7 37  1  0
  8 38  1  0
  9 39  1  0
 10 40  1  0
 11 41  1  0
 12 42  1  0
 22 43  1  0
 22 44  1  0
 23 45  1  0
 23 46  1  0
 24 47  1  0
 24 48  1  0
 25 49  1  0
 25 50  1  0
 29 51  1  0
 30 52  1  0
M  END
>  <Name>  (242) 
CHEMBL72286

>  <Comment>  (242) 
 Schrodinger Suite 2021-4.

>  <s_m_entry_id>  (242) 
1183

>  <class_value>  (242) 
1

>  <s_m_Source_Path>  (242) 
C:\Users\vinicius\Desktop

>  <s_m_Source_File>  (242) 
Ligands_Saureus_o.sdf

>  <i_m_Source_File_Index>  (242) 
87

>  <r_lp_tautomer_probability>  (242) 
0.99999999999473

>  <r_epik_Ionization_Penalty>  (242) 
0.0521

>  <r_epik_State_Penalty>  (242) 
0.0438

>  <i_epik_Tot_Q>  (242) 
0

>  <i_f3d_flags>  (242) 
0

>  <s_m_job_name>  (242) 
Saureus_o

>  <FRED Chemgauss4 score>  (242) 
-12.047957

>  <Set>  (242) 
test

>  <HBA count>  (242) 
4

>  <HBD count>  (242) 
2

>  <ExactMolWt>  (242) 
398.1630425640006

>  <NumRotatableBounds>  (242) 
5

>  <FractionCsp3>  (242) 
0.16

>  <TPSA>  (242) 
65.7

>  <LogP_WildmanCrippen>  (242) 
4.299300000000004

>  <General_Cluster>  (242) 
3

>  <Biological_Cluster>  (242) 
1

>  <Physicochemical_Cluster>  (242) 
1

>  <Structural_Cluster>  (242) 
4

$$$$
CHEMBL44416
     RDKit          3D

 47 49  0  0  0  0  0  0  0  0999 V2000
  111.8840   72.8318   34.8344 C   0  0  0  0  0  0  0  0  0  0  0  0
  111.3771   72.9042   33.5384 C   0  0  0  0  0  0  0  0  0  0  0  0
  111.7555   71.6603   35.5894 C   0  0  0  0  0  0  0  0  0  0  0  0
  110.7274   71.8119   32.9565 C   0  0  0  0  0  0  0  0  0  0  0  0
  110.8022   69.2344   35.4856 C   0  0  0  0  0  0  0  0  0  0  0  0
  110.3737   66.9226   39.4424 C   0  0  0  0  0  0  0  0  0  0  0  0
  112.2953   65.6973   40.1228 C   0  0  0  0  0  0  0  0  0  0  0  0
  111.1042   70.5461   35.0238 C   0  0  0  0  0  0  0  0  0  0  0  0
  111.4825   66.1571   39.0991 C   0  0  0  0  0  0  0  0  0  0  0  0
  110.1152   67.2010   40.7799 C   0  0  0  0  0  0  0  0  0  0  0  0
  110.6062   70.6474   33.7230 C   0  0  0  0  0  0  0  0  0  0  0  0
  110.1388   68.5772   34.4752 C   0  0  0  0  0  0  0  0  0  0  0  0
  110.9890   66.6944   41.7283 C   0  0  0  0  0  0  0  0  0  0  0  0
  111.7858   65.8455   37.6912 C   0  0  0  0  0  0  0  0  0  0  0  0
  110.8958   65.9058   36.6894 C   0  0  0  0  0  0  0  0  0  0  0  0
  111.3183   65.5332   35.3071 C   0  0  0  0  0  0  0  0  0  0  0  0
  108.9260   68.0233   41.1443 C   0  0  0  0  0  0  0  0  0  0  0  0
  109.3878   69.1211   32.1544 C   0  0  0  0  0  0  0  0  0  0  0  0
  110.9894   65.8537   32.8852 C   0  0  0  0  0  0  0  0  0  0  0  0
  109.5952   67.1783   34.4335 C   0  0  0  0  0  0  0  0  0  0  0  0
  112.0763   65.9472   41.4332 N   0  0  0  0  0  0  0  0  0  0  0  0
  110.0255   69.4375   33.4162 N   0  0  0  0  0  0  0  0  0  0  0  0
  110.7297   66.9759   43.0931 N   0  0  0  0  0  0  0  0  0  0  0  0
  110.6541   66.1849   34.2641 N   0  0  0  0  0  0  0  0  0  0  0  0
  112.1890   64.6773   35.1432 O   0  0  0  0  0  0  0  0  0  0  0  0
  112.3911   73.7057   35.2692 H   0  0  0  0  0  0  0  0  0  0  0  0
  111.4900   73.8356   32.9642 H   0  0  0  0  0  0  0  0  0  0  0  0
  112.1580   71.6100   36.6119 H   0  0  0  0  0  0  0  0  0  0  0  0
  110.3262   71.8657   31.9337 H   0  0  0  0  0  0  0  0  0  0  0  0
  111.0539   68.8203   36.4731 H   0  0  0  0  0  0  0  0  0  0  0  0
  109.7037   67.3064   38.6590 H   0  0  0  0  0  0  0  0  0  0  0  0
  113.1728   65.0916   39.8525 H   0  0  0  0  0  0  0  0  0  0  0  0
  112.8140   65.5422   37.4444 H   0  0  0  0  0  0  0  0  0  0  0  0
  109.8622   66.2275   36.8851 H   0  0  0  0  0  0  0  0  0  0  0  0
  108.8420   68.0814   42.2396 H   0  0  0  0  0  0  0  0  0  0  0  0
  109.0401   69.0363   40.7311 H   0  0  0  0  0  0  0  0  0  0  0  0
  108.0185   67.5589   40.7311 H   0  0  0  0  0  0  0  0  0  0  0  0
  108.4173   68.6396   32.3447 H   0  0  0  0  0  0  0  0  0  0  0  0
  109.2318   70.0463   31.5803 H   0  0  0  0  0  0  0  0  0  0  0  0
  110.0302   68.4372   31.5803 H   0  0  0  0  0  0  0  0  0  0  0  0
  111.7719   65.0807   32.8737 H   0  0  0  0  0  0  0  0  0  0  0  0
  110.0935   65.4762   32.3705 H   0  0  0  0  0  0  0  0  0  0  0  0
  111.3558   66.7542   32.3705 H   0  0  0  0  0  0  0  0  0  0  0  0
  109.0648   66.9750   35.3755 H   0  0  0  0  0  0  0  0  0  0  0  0
  108.9168   67.1026   33.5709 H   0  0  0  0  0  0  0  0  0  0  0  0
  111.3604   66.6138   43.8225 H   0  0  0  0  0  0  0  0  0  0  0  0
  109.9106   67.5425   43.3555 H   0  0  0  0  0  0  0  0  0  0  0  0
  1  2  2  0
  1  3  1  0
  2  4  1  0
  3  8  2  0
  4 11  2  0
  5  8  1  0
  5 12  2  0
  6  9  2  0
  6 10  1  0
  7  9  1  0
  7 21  2  0
  8 11  1  0
  9 14  1  0
 10 13  2  0
 10 17  1  0
 11 22  1  0
 12 20  1  0
 12 22  1  0
 13 21  1  0
 13 23  1  0
 14 15  2  0
 15 16  1  0
 16 24  1  0
 16 25  2  0
 18 22  1  0
 19 24  1  0
 20 24  1  0
  1 26  1  0
  2 27  1  0
  3 28  1  0
  4 29  1  0
  5 30  1  0
  6 31  1  0
  7 32  1  0
 14 33  1  0
 15 34  1  0
 17 35  1  0
 17 36  1  0
 17 37  1  0
 18 38  1  0
 18 39  1  0
 18 40  1  0
 19 41  1  0
 19 42  1  0
 19 43  1  0
 20 44  1  0
 20 45  1  0
 23 46  1  0
 23 47  1  0
M  END
>  <Name>  (243) 
CHEMBL44416

>  <Comment>  (243) 
 Schrodinger Suite 2021-4.

>  <s_m_entry_id>  (243) 
1191

>  <class_value>  (243) 
1

>  <s_m_Source_Path>  (243) 
C:\Users\vinicius\Desktop

>  <s_m_Source_File>  (243) 
Ligands_Saureus_o.sdf

>  <i_m_Source_File_Index>  (243) 
93

>  <r_epik_Ionization_Penalty>  (243) 
0.055

>  <r_epik_State_Penalty>  (243) 
0.0472

>  <i_epik_Tot_Q>  (243) 
0

>  <i_f3d_flags>  (243) 
0

>  <s_m_job_name>  (243) 
Saureus_o

>  <FRED Chemgauss4 score>  (243) 
-16.939955

>  <Set>  (243) 
test

>  <HBA count>  (243) 
4

>  <HBD count>  (243) 
1

>  <ExactMolWt>  (243) 
334.17936132400064

>  <NumRotatableBounds>  (243) 
8

>  <FractionCsp3>  (243) 
0.2

>  <TPSA>  (243) 
64.15

>  <LogP_WildmanCrippen>  (243) 
3.135720000000002

>  <General_Cluster>  (243) 
1

>  <Biological_Cluster>  (243) 
1

>  <Physicochemical_Cluster>  (243) 
1

>  <Structural_Cluster>  (243) 
3

$$$$
CHEMBL46425
     RDKit          3D

 56 59  0  0  0  0  0  0  0  0999 V2000
  112.2711   71.0826   35.9422 C   0  0  0  0  0  0  0  0  0  0  0  0
  111.5351   69.9146   35.7114 C   0  0  0  0  0  0  0  0  0  0  0  0
  112.2066   72.1536   35.0530 C   0  0  0  0  0  0  0  0  0  0  0  0
  110.3778   67.0938   39.6261 C   0  0  0  0  0  0  0  0  0  0  0  0
  112.3736   65.9786   40.2704 C   0  0  0  0  0  0  0  0  0  0  0  0
  110.7221   69.8301   34.5637 C   0  0  0  0  0  0  0  0  0  0  0  0
  111.5316   66.4112   39.2612 C   0  0  0  0  0  0  0  0  0  0  0  0
  110.0922   67.3044   40.9759 C   0  0  0  0  0  0  0  0  0  0  0  0
  111.4072   72.0926   33.9080 C   0  0  0  0  0  0  0  0  0  0  0  0
  109.8642   68.8291   34.0280 C   0  0  0  0  0  0  0  0  0  0  0  0
  110.6769   70.9188   33.6903 C   0  0  0  0  0  0  0  0  0  0  0  0
  109.3247   69.3204   32.8616 C   0  0  0  0  0  0  0  0  0  0  0  0
  110.9996   66.8247   41.9197 C   0  0  0  0  0  0  0  0  0  0  0  0
  109.5625   67.5562   43.7864 C   0  0  0  0  0  0  0  0  0  0  0  0
  111.8514   66.1724   37.8656 C   0  0  0  0  0  0  0  0  0  0  0  0
  110.9662   66.2094   36.8417 C   0  0  0  0  0  0  0  0  0  0  0  0
  111.4137   65.9125   35.4489 C   0  0  0  0  0  0  0  0  0  0  0  0
  108.9102   68.1172   41.4098 C   0  0  0  0  0  0  0  0  0  0  0  0
  108.4317   67.6819   42.7858 C   0  0  0  0  0  0  0  0  0  0  0  0
  111.3798   73.2727   32.9927 C   0  0  0  0  0  0  0  0  0  0  0  0
  108.3770   68.6930   31.9153 C   0  0  0  0  0  0  0  0  0  0  0  0
  109.4829   71.4226   31.5358 C   0  0  0  0  0  0  0  0  0  0  0  0
  111.0707   66.2978   33.0384 C   0  0  0  0  0  0  0  0  0  0  0  0
  109.5947   67.4788   34.6266 C   0  0  0  0  0  0  0  0  0  0  0  0
  112.1403   66.1750   41.5873 N   0  0  0  0  0  0  0  0  0  0  0  0
  109.8210   70.5813   32.6662 N   0  0  0  0  0  0  0  0  0  0  0  0
  110.7447   67.0470   43.2865 N   0  0  0  0  0  0  0  0  0  0  0  0
  110.7128   66.5588   34.4267 N   0  0  0  0  0  0  0  0  0  0  0  0
  109.3911   67.8059   44.9795 O   0  0  0  0  0  0  0  0  0  0  0  0
  112.3356   65.1179   35.2587 O   0  0  0  0  0  0  0  0  0  0  0  0
  112.9080   71.1560   36.8361 H   0  0  0  0  0  0  0  0  0  0  0  0
  111.5907   69.0729   36.4174 H   0  0  0  0  0  0  0  0  0  0  0  0
  112.7940   73.0613   35.2554 H   0  0  0  0  0  0  0  0  0  0  0  0
  109.6907   67.4675   38.8526 H   0  0  0  0  0  0  0  0  0  0  0  0
  113.2896   65.4416   39.9832 H   0  0  0  0  0  0  0  0  0  0  0  0
  112.8986   65.9426   37.6197 H   0  0  0  0  0  0  0  0  0  0  0  0
  109.9129   66.4593   37.0370 H   0  0  0  0  0  0  0  0  0  0  0  0
  109.1963   69.1787   41.4466 H   0  0  0  0  0  0  0  0  0  0  0  0
  108.0939   67.9656   40.6882 H   0  0  0  0  0  0  0  0  0  0  0  0
  107.9344   66.7052   42.6925 H   0  0  0  0  0  0  0  0  0  0  0  0
  107.7437   68.4554   43.1579 H   0  0  0  0  0  0  0  0  0  0  0  0
  111.3583   74.1977   33.5876 H   0  0  0  0  0  0  0  0  0  0  0  0
  112.2784   73.2656   32.3582 H   0  0  0  0  0  0  0  0  0  0  0  0
  110.4825   73.2239   32.3582 H   0  0  0  0  0  0  0  0  0  0  0  0
  107.5887   68.1711   32.4777 H   0  0  0  0  0  0  0  0  0  0  0  0
  107.9229   69.4695   31.2822 H   0  0  0  0  0  0  0  0  0  0  0  0
  108.9145   67.9717   31.2822 H   0  0  0  0  0  0  0  0  0  0  0  0
  109.0957   72.3861   31.8987 H   0  0  0  0  0  0  0  0  0  0  0  0
  110.3816   71.5951   30.9253 H   0  0  0  0  0  0  0  0  0  0  0  0
  108.7148   70.9252   30.9253 H   0  0  0  0  0  0  0  0  0  0  0  0
  111.9590   65.6500   33.0043 H   0  0  0  0  0  0  0  0  0  0  0  0
  110.2324   65.7975   32.5315 H   0  0  0  0  0  0  0  0  0  0  0  0
  111.2908   67.2489   32.5315 H   0  0  0  0  0  0  0  0  0  0  0  0
  109.4207   67.5972   35.7063 H   0  0  0  0  0  0  0  0  0  0  0  0
  108.7118   67.0549   34.1257 H   0  0  0  0  0  0  0  0  0  0  0  0
  111.4899   66.8142   43.9584 H   0  0  0  0  0  0  0  0  0  0  0  0
  1  2  2  0
  1  3  1  0
  2  6  1  0
  3  9  2  0
  4  7  2  0
  4  8  1  0
  5  7  1  0
  5 25  2  0
  6 10  1  0
  6 11  2  0
  7 15  1  0
  8 13  2  0
  8 18  1  0
  9 11  1  0
  9 20  1  0
 10 12  2  0
 10 24  1  0
 11 26  1  0
 12 21  1  0
 12 26  1  0
 13 25  1  0
 13 27  1  0
 14 19  1  0
 14 27  1  0
 14 29  2  0
 15 16  2  0
 16 17  1  0
 17 28  1  0
 17 30  2  0
 18 19  1  0
 22 26  1  0
 23 28  1  0
 24 28  1  0
  1 31  1  0
  2 32  1  0
  3 33  1  0
  4 34  1  0
  5 35  1  0
 15 36  1  0
 16 37  1  0
 18 38  1  0
 18 39  1  0
 19 40  1  0
 19 41  1  0
 20 42  1  0
 20 43  1  0
 20 44  1  0
 21 45  1  0
 21 46  1  0
 21 47  1  0
 22 48  1  0
 22 49  1  0
 22 50  1  0
 23 51  1  0
 23 52  1  0
 23 53  1  0
 24 54  1  0
 24 55  1  0
 27 56  1  0
M  END
>  <Name>  (244) 
CHEMBL46425

>  <Comment>  (244) 
 Schrodinger Suite 2021-4.

>  <s_m_entry_id>  (244) 
1082

>  <class_value>  (244) 
1

>  <s_m_Source_Path>  (244) 
C:\Users\vinicius\Desktop

>  <s_m_Source_File>  (244) 
Ligands_Saureus_o.sdf

>  <i_m_Source_File_Index>  (244) 
8

>  <r_lp_tautomer_probability>  (244) 
1

>  <r_epik_Ionization_Penalty>  (244) 
0.0002

>  <r_epik_State_Penalty>  (244) 
0

>  <i_epik_Tot_Q>  (244) 
0

>  <i_f3d_flags>  (244) 
0

>  <s_m_job_name>  (244) 
Saureus_o

>  <FRED Chemgauss4 score>  (244) 
-15.216960

>  <Set>  (244) 
test

>  <HBA count>  (244) 
4

>  <HBD count>  (244) 
1

>  <ExactMolWt>  (244) 
402.2055760720008

>  <NumRotatableBounds>  (244) 
8

>  <FractionCsp3>  (244) 
0.2916666666666667

>  <TPSA>  (244) 
67.23

>  <LogP_WildmanCrippen>  (244) 
3.746640000000003

>  <General_Cluster>  (244) 
1

>  <Biological_Cluster>  (244) 
1

>  <Physicochemical_Cluster>  (244) 
1

>  <Structural_Cluster>  (244) 
2

$$$$
CHEMBL3322717
     RDKit          3D

 50 54  0  0  0  0  0  0  0  0999 V2000
  111.3696   72.0229   33.3288 C   0  0  0  0  0  0  0  0  0  0  0  0
  111.8452   72.6503   34.4714 C   0  0  0  0  0  0  0  0  0  0  0  0
  110.9268   70.6986   33.3835 C   0  0  0  0  0  0  0  0  0  0  0  0
  111.8888   71.9709   35.6904 C   0  0  0  0  0  0  0  0  0  0  0  0
  108.9800   62.8226   43.3880 C   0  0  0  0  0  0  0  0  0  0  0  0
  108.4111   65.0488   42.7865 C   0  0  0  0  0  0  0  0  0  0  0  0
  110.9582   69.9824   34.6045 C   0  0  0  0  0  0  0  0  0  0  0  0
  109.0791   63.8749   42.4862 C   0  0  0  0  0  0  0  0  0  0  0  0
  108.2079   62.9660   44.5417 C   0  0  0  0  0  0  0  0  0  0  0  0
  110.5641   68.6358   34.9073 C   0  0  0  0  0  0  0  0  0  0  0  0
  111.4416   70.6360   35.7421 C   0  0  0  0  0  0  0  0  0  0  0  0
  110.7519   68.3077   36.2289 C   0  0  0  0  0  0  0  0  0  0  0  0
  107.5673   64.1864   44.7531 C   0  0  0  0  0  0  0  0  0  0  0  0
  106.4856   63.3501   46.8064 C   0  0  0  0  0  0  0  0  0  0  0  0
  109.8462   63.7423   41.2611 C   0  0  0  0  0  0  0  0  0  0  0  0
  110.3282   64.7636   40.5141 C   0  0  0  0  0  0  0  0  0  0  0  0
  111.0955   64.5785   39.2691 C   0  0  0  0  0  0  0  0  0  0  0  0
  108.1504   61.8921   45.5855 C   0  0  0  0  0  0  0  0  0  0  0  0
  106.8356   61.9493   46.3469 C   0  0  0  0  0  0  0  0  0  0  0  0
  110.1791   66.7976   38.3939 C   0  0  0  0  0  0  0  0  0  0  0  0
  111.5509   65.8636   37.0574 C   0  0  0  0  0  0  0  0  0  0  0  0
  110.4117   66.8961   36.8665 C   0  0  0  0  0  0  0  0  0  0  0  0
  110.0111   67.6967   33.8969 C   0  0  0  0  0  0  0  0  0  0  0  0
  107.6660   65.2326   43.8993 N   0  0  0  0  0  0  0  0  0  0  0  0
  106.8027   64.3624   45.9222 N   0  0  0  0  0  0  0  0  0  0  0  0
  110.9587   65.5758   38.3482 N   0  0  0  0  0  0  0  0  0  0  0  0
  105.8742   63.5443   47.8569 O   0  0  0  0  0  0  0  0  0  0  0  0
  111.7918   63.5773   39.1216 O   0  0  0  0  0  0  0  0  0  0  0  0
  111.4012   69.6051   37.1237 S   0  0  0  0  0  0  0  0  0  0  0  0
  111.3410   72.5706   32.3753 H   0  0  0  0  0  0  0  0  0  0  0  0
  112.1912   73.6930   34.4163 H   0  0  0  0  0  0  0  0  0  0  0  0
  110.5516   70.2096   32.4724 H   0  0  0  0  0  0  0  0  0  0  0  0
  112.2661   72.4697   36.5953 H   0  0  0  0  0  0  0  0  0  0  0  0
  109.5091   61.8782   43.1930 H   0  0  0  0  0  0  0  0  0  0  0  0
  108.4913   65.8844   42.0756 H   0  0  0  0  0  0  0  0  0  0  0  0
  110.0544   62.7215   40.9082 H   0  0  0  0  0  0  0  0  0  0  0  0
  110.1360   65.7912   40.8562 H   0  0  0  0  0  0  0  0  0  0  0  0
  108.2426   60.9102   45.0982 H   0  0  0  0  0  0  0  0  0  0  0  0
  108.9762   62.0460   46.2957 H   0  0  0  0  0  0  0  0  0  0  0  0
  106.9120   61.2981   47.2302 H   0  0  0  0  0  0  0  0  0  0  0  0
  106.0412   61.6161   45.6629 H   0  0  0  0  0  0  0  0  0  0  0  0
  110.6285   67.6106   38.9830 H   0  0  0  0  0  0  0  0  0  0  0  0
  109.1729   66.8342   38.8368 H   0  0  0  0  0  0  0  0  0  0  0  0
  111.5382   65.0248   36.3459 H   0  0  0  0  0  0  0  0  0  0  0  0
  112.6114   66.1341   36.9466 H   0  0  0  0  0  0  0  0  0  0  0  0
  109.5971   66.7330   36.1455 H   0  0  0  0  0  0  0  0  0  0  0  0
  109.5169   66.8574   34.4081 H   0  0  0  0  0  0  0  0  0  0  0  0
  109.2796   68.2245   33.2673 H   0  0  0  0  0  0  0  0  0  0  0  0
  110.8275   67.3131   33.2673 H   0  0  0  0  0  0  0  0  0  0  0  0
  106.4567   65.3096   46.1320 H   0  0  0  0  0  0  0  0  0  0  0  0
  1  2  2  0
  1  3  1  0
  2  4  1  0
  3  7  2  0
  4 11  2  0
  5  8  2  0
  5  9  1  0
  6  8  1  0
  6 24  2  0
  7 10  1  0
  7 11  1  0
  8 15  1  0
  9 13  2  0
  9 18  1  0
 10 12  2  0
 10 23  1  0
 11 29  1  0
 12 22  1  0
 12 29  1  0
 13 24  1  0
 13 25  1  0
 14 19  1  0
 14 25  1  0
 14 27  2  0
 15 16  2  0
 16 17  1  0
 17 26  1  0
 17 28  2  0
 18 19  1  0
 20 22  1  0
 20 26  1  0
 21 22  1  0
 21 26  1  0
  1 30  1  0
  2 31  1  0
  3 32  1  0
  4 33  1  0
  5 34  1  0
  6 35  1  0
 15 36  1  0
 16 37  1  0
 18 38  1  0
 18 39  1  0
 19 40  1  0
 19 41  1  0
 20 42  1  0
 20 43  1  0
 21 44  1  0
 21 45  1  0
 22 46  1  0
 23 47  1  0
 23 48  1  0
 23 49  1  0
 25 50  1  0
M  END
>  <Name>  (245) 
CHEMBL3322717

>  <Comment>  (245) 
 Schrodinger Suite 2021-4.

>  <s_m_entry_id>  (245) 
1185

>  <class_value>  (245) 
1

>  <s_m_Source_Path>  (245) 
C:\Users\vinicius\Desktop

>  <s_m_Source_File>  (245) 
Ligands_Saureus_o.sdf

>  <i_m_Source_File_Index>  (245) 
88

>  <r_lp_tautomer_probability>  (245) 
1

>  <r_epik_Ionization_Penalty>  (245) 
0.0002

>  <r_epik_State_Penalty>  (245) 
0

>  <i_epik_Tot_Q>  (245) 
0

>  <i_f3d_flags>  (245) 
0

>  <s_m_job_name>  (245) 
Saureus_o

>  <FRED Chemgauss4 score>  (245) 
-14.297905

>  <Set>  (245) 
test

>  <HBA count>  (245) 
4

>  <HBD count>  (245) 
1

>  <ExactMolWt>  (245) 
403.1354479120006

>  <NumRotatableBounds>  (245) 
4

>  <FractionCsp3>  (245) 
0.2608695652173913

>  <TPSA>  (245) 
62.300000000000004

>  <LogP_WildmanCrippen>  (245) 
4.128620000000004

>  <General_Cluster>  (245) 
1

>  <Biological_Cluster>  (245) 
1

>  <Physicochemical_Cluster>  (245) 
1

>  <Structural_Cluster>  (245) 
2

$$$$
CHEMBL3676412
     RDKit          3D

 44 47  0  0  0  0  0  0  0  0999 V2000
  108.5897   63.5190   42.8379 C   0  0  0  0  0  0  0  0  0  0  0  0
  110.6111   70.2505   32.0807 C   0  0  0  0  0  0  0  0  0  0  0  0
  108.7518   65.8874   42.9139 C   0  0  0  0  0  0  0  0  0  0  0  0
  110.0173   69.0821   31.6514 C   0  0  0  0  0  0  0  0  0  0  0  0
  109.2082   64.6849   42.4038 C   0  0  0  0  0  0  0  0  0  0  0  0
  107.5308   63.5897   43.7443 C   0  0  0  0  0  0  0  0  0  0  0  0
  107.1390   64.8493   44.1962 C   0  0  0  0  0  0  0  0  0  0  0  0
  110.3926   69.2581   34.0243 C   0  0  0  0  0  0  0  0  0  0  0  0
  105.2849   63.8864   45.5079 C   0  0  0  0  0  0  0  0  0  0  0  0
  110.2884   64.6444   41.4352 C   0  0  0  0  0  0  0  0  0  0  0  0
  110.7018   65.6792   40.6661 C   0  0  0  0  0  0  0  0  0  0  0  0
  111.8001   65.5865   39.6870 C   0  0  0  0  0  0  0  0  0  0  0  0
  106.8988   62.3541   44.3099 C   0  0  0  0  0  0  0  0  0  0  0  0
  105.4523   62.6169   44.6978 C   0  0  0  0  0  0  0  0  0  0  0  0
  112.5661   66.5882   37.4672 C   0  0  0  0  0  0  0  0  0  0  0  0
  110.6919   67.3636   38.1548 C   0  0  0  0  0  0  0  0  0  0  0  0
  111.7089   67.8052   37.0904 C   0  0  0  0  0  0  0  0  0  0  0  0
  110.4563   69.0002   35.5010 C   0  0  0  0  0  0  0  0  0  0  0  0
  107.7400   65.9973   43.8036 N   0  0  0  0  0  0  0  0  0  0  0  0
  110.8267   70.3534   33.4411 N   0  0  0  0  0  0  0  0  0  0  0  0
  106.0890   64.9433   45.1296 N   0  0  0  0  0  0  0  0  0  0  0  0
  111.6885   66.4151   38.6080 N   0  0  0  0  0  0  0  0  0  0  0  0
  104.4187   63.9803   46.3774 O   0  0  0  0  0  0  0  0  0  0  0  0
  112.7255   64.8012   39.8765 O   0  0  0  0  0  0  0  0  0  0  0  0
  111.2312   67.8394   35.7342 O   0  0  0  0  0  0  0  0  0  0  0  0
  109.7139   68.0628   32.9968 S   0  0  0  0  0  0  0  0  0  0  0  0
  108.9340   62.5420   42.4679 H   0  0  0  0  0  0  0  0  0  0  0  0
  110.8956   71.0514   31.3824 H   0  0  0  0  0  0  0  0  0  0  0  0
  109.2428   66.8113   42.5744 H   0  0  0  0  0  0  0  0  0  0  0  0
  109.7753   68.8409   30.6058 H   0  0  0  0  0  0  0  0  0  0  0  0
  110.8183   63.6879   41.3153 H   0  0  0  0  0  0  0  0  0  0  0  0
  110.1882   66.6454   40.7783 H   0  0  0  0  0  0  0  0  0  0  0  0
  106.9302   61.5549   43.5547 H   0  0  0  0  0  0  0  0  0  0  0  0
  107.4560   62.0530   45.2093 H   0  0  0  0  0  0  0  0  0  0  0  0
  105.0884   61.7679   45.2951 H   0  0  0  0  0  0  0  0  0  0  0  0
  104.8761   62.7376   43.7686 H   0  0  0  0  0  0  0  0  0  0  0  0
  112.5415   65.7646   36.7385 H   0  0  0  0  0  0  0  0  0  0  0  0
  113.6582   66.6578   37.5786 H   0  0  0  0  0  0  0  0  0  0  0  0
  110.4275   68.1393   38.8886 H   0  0  0  0  0  0  0  0  0  0  0  0
  109.6705   67.0527   37.8902 H   0  0  0  0  0  0  0  0  0  0  0  0
  112.1283   68.8221   37.0952 H   0  0  0  0  0  0  0  0  0  0  0  0
  110.9201   69.8605   36.0057 H   0  0  0  0  0  0  0  0  0  0  0  0
  109.4403   68.8537   35.8963 H   0  0  0  0  0  0  0  0  0  0  0  0
  105.9086   65.8620   45.5590 H   0  0  0  0  0  0  0  0  0  0  0  0
  1  5  2  0
  1  6  1  0
  2  4  2  0
  2 20  1  0
  3  5  1  0
  3 19  2  0
  4 26  1  0
  5 10  1  0
  6  7  2  0
  6 13  1  0
  7 19  1  0
  7 21  1  0
  8 18  1  0
  8 20  2  0
  8 26  1  0
  9 14  1  0
  9 21  1  0
  9 23  2  0
 10 11  2  0
 11 12  1  0
 12 22  1  0
 12 24  2  0
 13 14  1  0
 15 17  1  0
 15 22  1  0
 16 17  1  0
 16 22  1  0
 17 25  1  0
 18 25  1  0
  1 27  1  0
  2 28  1  0
  3 29  1  0
  4 30  1  0
 10 31  1  0
 11 32  1  0
 13 33  1  0
 13 34  1  0
 14 35  1  0
 14 36  1  0
 15 37  1  0
 15 38  1  0
 16 39  1  0
 16 40  1  0
 17 41  1  0
 18 42  1  0
 18 43  1  0
 21 44  1  0
M  END
>  <Name>  (246) 
CHEMBL3676412

>  <Comment>  (246) 
 Schrodinger Suite 2021-4.

>  <s_m_entry_id>  (246) 
1105

>  <class_value>  (246) 
1

>  <s_m_Source_Path>  (246) 
C:\Users\vinicius\Desktop

>  <s_m_Source_File>  (246) 
Ligands_Saureus_o.sdf

>  <i_m_Source_File_Index>  (246) 
27

>  <r_lp_tautomer_probability>  (246) 
1

>  <r_epik_Ionization_Penalty>  (246) 
0.0002

>  <r_epik_State_Penalty>  (246) 
0

>  <i_epik_Tot_Q>  (246) 
0

>  <i_f3d_flags>  (246) 
0

>  <s_m_job_name>  (246) 
Saureus_o

>  <FRED Chemgauss4 score>  (246) 
-11.270535

>  <Set>  (246) 
test

>  <HBA count>  (246) 
6

>  <HBD count>  (246) 
1

>  <ExactMolWt>  (246) 
370.1099614360005

>  <NumRotatableBounds>  (246) 
5

>  <FractionCsp3>  (246) 
0.3333333333333333

>  <TPSA>  (246) 
84.42

>  <LogP_WildmanCrippen>  (246) 
1.8635999999999997

>  <General_Cluster>  (246) 
1

>  <Biological_Cluster>  (246) 
1

>  <Physicochemical_Cluster>  (246) 
4

>  <Structural_Cluster>  (246) 
2

$$$$
CHEMBL302470
     RDKit          3D

 39 41  0  0  0  0  0  0  0  0999 V2000
  110.5625   67.0727   38.1396 C   0  0  0  0  0  0  0  0  0  0  0  0
  111.3793   64.8010   38.0421 C   0  0  0  0  0  0  0  0  0  0  0  0
  109.6217   69.6690   33.7561 C   0  0  0  0  0  0  0  0  0  0  0  0
  111.6073   69.4908   32.3912 C   0  0  0  0  0  0  0  0  0  0  0  0
  109.8825   71.0242   33.9586 C   0  0  0  0  0  0  0  0  0  0  0  0
  111.8680   70.8461   32.5936 C   0  0  0  0  0  0  0  0  0  0  0  0
  110.6327   67.0382   39.5323 C   0  0  0  0  0  0  0  0  0  0  0  0
  111.4495   64.7665   39.4348 C   0  0  0  0  0  0  0  0  0  0  0  0
  110.4418   67.0686   35.2212 C   0  0  0  0  0  0  0  0  0  0  0  0
  111.0001   65.3740   33.9277 C   0  0  0  0  0  0  0  0  0  0  0  0
  110.9357   65.9541   37.3945 C   0  0  0  0  0  0  0  0  0  0  0  0
  110.4842   68.9023   32.9725 C   0  0  0  0  0  0  0  0  0  0  0  0
  111.0056   71.6128   33.3773 C   0  0  0  0  0  0  0  0  0  0  0  0
  111.0763   65.8852   40.1799 C   0  0  0  0  0  0  0  0  0  0  0  0
  110.8631   65.9888   35.9608 C   0  0  0  0  0  0  0  0  0  0  0  0
  110.7486   67.0296   42.2387 C   0  0  0  0  0  0  0  0  0  0  0  0
  110.2036   67.4402   32.7536 C   0  0  0  0  0  0  0  0  0  0  0  0
  111.2828   73.0623   33.5928 C   0  0  0  0  0  0  0  0  0  0  0  0
  111.2095   64.9373   35.1497 N   0  0  0  0  0  0  0  0  0  0  0  0
  110.5354   66.6598   33.9207 N   0  0  0  0  0  0  0  0  0  0  0  0
  111.1451   65.8512   41.5388 O   0  0  0  0  0  0  0  0  0  0  0  0
  110.3555   73.6861   34.3782 F   0  0  0  0  0  0  0  0  0  0  0  0
  112.4830   73.3054   34.1978 F   0  0  0  0  0  0  0  0  0  0  0  0
  111.3106   73.7707   32.4265 F   0  0  0  0  0  0  0  0  0  0  0  0
  110.2128   67.9820   37.6289 H   0  0  0  0  0  0  0  0  0  0  0  0
  111.6737   63.9189   37.4545 H   0  0  0  0  0  0  0  0  0  0  0  0
  108.7359   69.2049   34.2143 H   0  0  0  0  0  0  0  0  0  0  0  0
  112.2874   68.8862   31.7732 H   0  0  0  0  0  0  0  0  0  0  0  0
  109.2025   71.6288   34.5767 H   0  0  0  0  0  0  0  0  0  0  0  0
  112.7537   71.3103   32.1352 H   0  0  0  0  0  0  0  0  0  0  0  0
  110.3382   67.9203   40.1199 H   0  0  0  0  0  0  0  0  0  0  0  0
  111.7991   63.8572   39.9455 H   0  0  0  0  0  0  0  0  0  0  0  0
  110.1037   68.0466   35.5944 H   0  0  0  0  0  0  0  0  0  0  0  0
  111.1773   64.7773   33.0207 H   0  0  0  0  0  0  0  0  0  0  0  0
  110.8089   66.8503   43.3223 H   0  0  0  0  0  0  0  0  0  0  0  0
  111.4168   67.8599   41.9667 H   0  0  0  0  0  0  0  0  0  0  0  0
  109.7143   67.2871   41.9667 H   0  0  0  0  0  0  0  0  0  0  0  0
  109.1347   67.3107   32.5286 H   0  0  0  0  0  0  0  0  0  0  0  0
  110.8242   67.0904   31.9155 H   0  0  0  0  0  0  0  0  0  0  0  0
  1  7  2  0
  1 11  1  0
  2  8  1  0
  2 11  2  0
  3  5  2  0
  3 12  1  0
  4  6  1  0
  4 12  2  0
  5 13  1  0
  6 13  2  0
  7 14  1  0
  8 14  2  0
  9 15  2  0
  9 20  1  0
 10 19  2  0
 10 20  1  0
 11 15  1  0
 12 17  1  0
 13 18  1  0
 14 21  1  0
 15 19  1  0
 16 21  1  0
 17 20  1  0
 18 22  1  0
 18 23  1  0
 18 24  1  0
  1 25  1  0
  2 26  1  0
  3 27  1  0
  4 28  1  0
  5 29  1  0
  6 30  1  0
  7 31  1  0
  8 32  1  0
  9 33  1  0
 10 34  1  0
 16 35  1  0
 16 36  1  0
 16 37  1  0
 17 38  1  0
 17 39  1  0
M  END
>  <Name>  (247) 
CHEMBL302470

>  <Comment>  (247) 
 Schrodinger Suite 2021-4.

>  <s_m_entry_id>  (247) 
1309

>  <class_value>  (247) 
0

>  <s_m_Source_Path>  (247) 
C:\Users\vinicius\Desktop

>  <s_m_Source_File>  (247) 
Ligands_Saureus_o.sdf

>  <i_m_Source_File_Index>  (247) 
184

>  <r_lp_tautomer_probability>  (247) 
1

>  <r_epik_Ionization_Penalty>  (247) 
0.0819

>  <r_epik_State_Penalty>  (247) 
0.0726

>  <i_epik_Tot_Q>  (247) 
0

>  <i_f3d_flags>  (247) 
0

>  <s_m_job_name>  (247) 
Saureus_o

>  <FRED Chemgauss4 score>  (247) 
-13.307846

>  <Set>  (247) 
test

>  <HBA count>  (247) 
3

>  <HBD count>  (247) 
0

>  <ExactMolWt>  (247) 
332.1136477600004

>  <NumRotatableBounds>  (247) 
5

>  <FractionCsp3>  (247) 
0.16666666666666666

>  <TPSA>  (247) 
27.05

>  <LogP_WildmanCrippen>  (247) 
4.625800000000003

>  <General_Cluster>  (247) 
2

>  <Biological_Cluster>  (247) 
2

>  <Physicochemical_Cluster>  (247) 
3

>  <Structural_Cluster>  (247) 
3

$$$$
CHEMBL3322728
     RDKit          3D

 55 59  0  0  1  0  0  0  0  0999 V2000
  110.1550   70.0635   31.7334 C   0  0  0  0  0  0  0  0  0  0  0  0
  109.7448   68.7316   31.6345 C   0  0  0  0  0  0  0  0  0  0  0  0
  110.6656   70.5755   32.9342 C   0  0  0  0  0  0  0  0  0  0  0  0
  109.8290   67.8637   32.7274 C   0  0  0  0  0  0  0  0  0  0  0  0
  108.3413   63.4161   42.8376 C   0  0  0  0  0  0  0  0  0  0  0  0
  108.2867   65.7653   42.9917 C   0  0  0  0  0  0  0  0  0  0  0  0
  110.7595   69.7204   34.0461 C   0  0  0  0  0  0  0  0  0  0  0  0
  108.8746   64.6411   42.4651 C   0  0  0  0  0  0  0  0  0  0  0  0
  107.2439   63.3205   43.7203 C   0  0  0  0  0  0  0  0  0  0  0  0
  111.2031   69.8450   35.3891 C   0  0  0  0  0  0  0  0  0  0  0  0
  110.3407   68.4011   33.9071 C   0  0  0  0  0  0  0  0  0  0  0  0
  111.0281   68.6110   35.9714 C   0  0  0  0  0  0  0  0  0  0  0  0
  106.7439   64.5196   44.2304 C   0  0  0  0  0  0  0  0  0  0  0  0
  105.0077   63.7390   45.9170 C   0  0  0  0  0  0  0  0  0  0  0  0
  109.9977   64.7312   41.5516 C   0  0  0  0  0  0  0  0  0  0  0  0
  110.3506   65.8247   40.8343 C   0  0  0  0  0  0  0  0  0  0  0  0
  111.4976   65.8649   39.9092 C   0  0  0  0  0  0  0  0  0  0  0  0
  106.7561   61.9173   43.9856 C   0  0  0  0  0  0  0  0  0  0  0  0
  105.4774   62.3141   45.9686 C   0  0  0  0  0  0  0  0  0  0  0  0
  112.2681   67.0093   37.7582 C   0  0  0  0  0  0  0  0  0  0  0  0
  110.3007   67.5688   38.3554 C   0  0  0  0  0  0  0  0  0  0  0  0
  111.3802   68.2452   37.4738 C   0  0  0  0  0  0  0  0  0  0  0  0
  111.7435   71.0598   36.0299 C   0  0  0  0  0  0  0  0  0  0  0  0
  105.0493   60.3670   44.6344 C   0  0  0  0  0  0  0  0  0  0  0  0
  107.2464   65.7290   43.8493 N   0  0  0  0  0  0  0  0  0  0  0  0
  105.6838   64.6489   45.1508 N   0  0  0  0  0  0  0  0  0  0  0  0
  111.3616   66.7155   38.8512 N   0  0  0  0  0  0  0  0  0  0  0  0
  105.4384   61.7810   44.6131 N   0  0  0  0  0  0  0  0  0  0  0  0
  104.0543   64.0916   46.6204 O   0  0  0  0  0  0  0  0  0  0  0  0
  112.4810   65.1600   40.1215 O   0  0  0  0  0  0  0  0  0  0  0  0
  110.5053   67.7282   35.0807 O   0  0  0  0  0  0  0  0  0  0  0  0
  110.0760   70.7208   30.8549 H   0  0  0  0  0  0  0  0  0  0  0  0
  109.3481   68.3587   30.6787 H   0  0  0  0  0  0  0  0  0  0  0  0
  110.9864   71.6253   33.0051 H   0  0  0  0  0  0  0  0  0  0  0  0
  109.5087   66.8135   32.6598 H   0  0  0  0  0  0  0  0  0  0  0  0
  108.7855   62.4942   42.4343 H   0  0  0  0  0  0  0  0  0  0  0  0
  108.6856   66.7475   42.6983 H   0  0  0  0  0  0  0  0  0  0  0  0
  110.6183   63.8311   41.4305 H   0  0  0  0  0  0  0  0  0  0  0  0
  109.7457   66.7363   40.9488 H   0  0  0  0  0  0  0  0  0  0  0  0
  106.7210   61.3897   43.0210 H   0  0  0  0  0  0  0  0  0  0  0  0
  107.4658   61.5001   44.7152 H   0  0  0  0  0  0  0  0  0  0  0  0
  106.5058   62.2733   46.3570 H   0  0  0  0  0  0  0  0  0  0  0  0
  104.8312   61.7212   46.6326 H   0  0  0  0  0  0  0  0  0  0  0  0
  112.2835   66.2570   36.9558 H   0  0  0  0  0  0  0  0  0  0  0  0
  113.3553   67.0902   37.9045 H   0  0  0  0  0  0  0  0  0  0  0  0
  109.8440   68.2247   39.1112 H   0  0  0  0  0  0  0  0  0  0  0  0
  109.3703   67.1614   37.9330 H   0  0  0  0  0  0  0  0  0  0  0  0
  111.7320   69.2684   37.6721 H   0  0  0  0  0  0  0  0  0  0  0  0
  111.6947   70.9502   37.1233 H   0  0  0  0  0  0  0  0  0  0  0  0
  112.7899   71.2022   35.7220 H   0  0  0  0  0  0  0  0  0  0  0  0
  111.1486   71.9323   35.7220 H   0  0  0  0  0  0  0  0  0  0  0  0
  104.9560   60.0280   45.6767 H   0  0  0  0  0  0  0  0  0  0  0  0
  104.0841   60.2445   44.1212 H   0  0  0  0  0  0  0  0  0  0  0  0
  105.8160   59.7680   44.1212 H   0  0  0  0  0  0  0  0  0  0  0  0
  105.3539   65.6174   45.2696 H   0  0  0  0  0  0  0  0  0  0  0  0
  1  2  2  0
  1  3  1  0
  2  4  1  0
  3  7  2  0
  4 11  2  0
  5  8  2  0
  5  9  1  0
  6  8  1  0
  6 25  2  0
  7 10  1  0
  7 11  1  0
  8 15  1  0
  9 13  2  0
  9 18  1  0
 10 12  2  0
 10 23  1  0
 11 31  1  0
 12 22  1  0
 12 31  1  0
 13 25  1  0
 13 26  1  0
 14 19  1  0
 14 26  1  0
 14 29  2  0
 15 16  2  0
 16 17  1  0
 17 27  1  0
 17 30  2  0
 18 28  1  0
 19 28  1  0
 20 22  1  0
 20 27  1  0
 21 22  1  0
 21 27  1  0
 24 28  1  0
  1 32  1  0
  2 33  1  0
  3 34  1  0
  4 35  1  0
  5 36  1  0
  6 37  1  0
 15 38  1  0
 16 39  1  0
 18 40  1  0
 18 41  1  0
 19 42  1  0
 19 43  1  0
 20 44  1  0
 20 45  1  0
 21 46  1  0
 21 47  1  0
 22 48  1  0
 23 49  1  0
 23 50  1  0
 23 51  1  0
 24 52  1  0
 24 53  1  0
 24 54  1  0
 26 55  1  0
M  END
>  <Name>  (248) 
CHEMBL3322728

>  <Comment>  (248) 
 Schrodinger Suite 2021-4.

>  <s_m_entry_id>  (248) 
1122

>  <class_value>  (248) 
1

>  <s_m_Source_Path>  (248) 
C:\Users\vinicius\Desktop

>  <s_m_Source_File>  (248) 
Ligands_Saureus_o.sdf

>  <i_m_Source_File_Index>  (248) 
39

>  <r_epik_Ionization_Penalty>  (248) 
0.6375

>  <r_epik_State_Penalty>  (248) 
0.6545

>  <i_epik_Tot_Q>  (248) 
0

>  <i_f3d_flags>  (248) 
0

>  <s_m_job_name>  (248) 
Saureus_o

>  <FRED Chemgauss4 score>  (248) 
-13.037159

>  <Set>  (248) 
test

>  <HBA count>  (248) 
5

>  <HBD count>  (248) 
1

>  <ExactMolWt>  (248) 
416.1848406280007

>  <NumRotatableBounds>  (248) 
5

>  <FractionCsp3>  (248) 
0.2916666666666667

>  <TPSA>  (248) 
78.68

>  <LogP_WildmanCrippen>  (248) 
3.159320000000002

>  <General_Cluster>  (248) 
1

>  <Biological_Cluster>  (248) 
1

>  <Physicochemical_Cluster>  (248) 
1

>  <Structural_Cluster>  (248) 
2

$$$$
FULL_S8
     RDKit          3D

 43 46  0  0  0  0  0  0  0  0999 V2000
  111.2812   71.2827   31.0786 C   0  0  0  0  0  0  0  0  0  0  0  0
  111.7613   72.3154   31.8710 C   0  0  0  0  0  0  0  0  0  0  0  0
  110.8694   70.0835   31.6606 C   0  0  0  0  0  0  0  0  0  0  0  0
  109.8600   66.3379   38.9925 C   0  0  0  0  0  0  0  0  0  0  0  0
  112.1520   65.6226   38.7237 C   0  0  0  0  0  0  0  0  0  0  0  0
  111.8416   72.1773   33.2606 C   0  0  0  0  0  0  0  0  0  0  0  0
  110.0496   66.4273   40.3715 C   0  0  0  0  0  0  0  0  0  0  0  0
  112.3417   65.7121   40.1027 C   0  0  0  0  0  0  0  0  0  0  0  0
  110.9420   69.9210   33.0612 C   0  0  0  0  0  0  0  0  0  0  0  0
  110.9112   65.9355   38.1686 C   0  0  0  0  0  0  0  0  0  0  0  0
  110.6135   68.8573   33.9297 C   0  0  0  0  0  0  0  0  0  0  0  0
  111.4282   70.9674   33.8556 C   0  0  0  0  0  0  0  0  0  0  0  0
  111.2905   66.1144   40.9266 C   0  0  0  0  0  0  0  0  0  0  0  0
  110.9122   69.2466   35.2199 C   0  0  0  0  0  0  0  0  0  0  0  0
  110.7111   65.8404   36.7138 C   0  0  0  0  0  0  0  0  0  0  0  0
  111.7656   71.3613   36.2979 C   0  0  0  0  0  0  0  0  0  0  0  0
  110.0621   67.5118   33.6074 C   0  0  0  0  0  0  0  0  0  0  0  0
  110.7324   68.3714   36.4239 C   0  0  0  0  0  0  0  0  0  0  0  0
  109.4451   66.8763   34.8570 C   0  0  0  0  0  0  0  0  0  0  0  0
  112.6097   73.4718   36.9228 C   0  0  0  0  0  0  0  0  0  0  0  0
  111.3871   70.5567   35.2010 N   0  0  0  0  0  0  0  0  0  0  0  0
  110.3403   66.9995   36.0197 N   0  0  0  0  0  0  0  0  0  0  0  0
  111.4649   66.1967   42.1933 O   0  0  0  0  0  1  0  0  0  0  0  0
  110.8814   64.7305   36.2113 O   0  0  0  0  0  0  0  0  0  0  0  0
  111.7065   70.9449   37.4436 O   0  0  0  0  0  0  0  0  0  0  0  0
  112.1878   72.5802   35.8862 O   0  0  0  0  0  0  0  0  0  0  0  0
  111.2250   71.4099   29.9874 H   0  0  0  0  0  0  0  0  0  0  0  0
  112.0833   73.2558   31.3999 H   0  0  0  0  0  0  0  0  0  0  0  0
  110.4891   69.2666   31.0298 H   0  0  0  0  0  0  0  0  0  0  0  0
  108.8815   66.5847   38.5547 H   0  0  0  0  0  0  0  0  0  0  0  0
  112.9809   65.3053   38.0740 H   0  0  0  0  0  0  0  0  0  0  0  0
  112.2223   73.0018   33.8813 H   0  0  0  0  0  0  0  0  0  0  0  0
  109.2206   66.7445   41.0213 H   0  0  0  0  0  0  0  0  0  0  0  0
  113.3202   65.4654   40.5404 H   0  0  0  0  0  0  0  0  0  0  0  0
  109.2883   67.6130   32.8322 H   0  0  0  0  0  0  0  0  0  0  0  0
  110.8775   66.8687   33.2446 H   0  0  0  0  0  0  0  0  0  0  0  0
  111.6789   68.3268   36.9827 H   0  0  0  0  0  0  0  0  0  0  0  0
  109.9371   68.7956   37.0544 H   0  0  0  0  0  0  0  0  0  0  0  0
  108.4939   67.3806   35.0826 H   0  0  0  0  0  0  0  0  0  0  0  0
  109.2820   65.8070   34.6572 H   0  0  0  0  0  0  0  0  0  0  0  0
  112.3965   73.0212   37.9033 H   0  0  0  0  0  0  0  0  0  0  0  0
  113.6903   73.6557   36.8310 H   0  0  0  0  0  0  0  0  0  0  0  0
  112.0666   74.4240   36.8310 H   0  0  0  0  0  0  0  0  0  0  0  0
  1  2  2  0
  1  3  1  0
  2  6  1  0
  3  9  2  0
  4  7  2  0
  4 10  1  0
  5  8  1  0
  5 10  2  0
  6 12  2  0
  7 13  1  0
  8 13  2  0
  9 11  1  0
  9 12  1  0
 10 15  1  0
 11 14  2  0
 11 17  1  0
 12 21  1  0
 13 23  1  0
 14 18  1  0
 14 21  1  0
 15 22  1  0
 15 24  2  0
 16 21  1  0
 16 25  2  0
 16 26  1  0
 17 19  1  0
 18 22  1  0
 19 22  1  0
 20 26  1  0
  1 27  1  0
  2 28  1  0
  3 29  1  0
  4 30  1  0
  5 31  1  0
  6 32  1  0
  7 33  1  0
  8 34  1  0
 17 35  1  0
 17 36  1  0
 18 37  1  0
 18 38  1  0
 19 39  1  0
 19 40  1  0
 20 41  1  0
 20 42  1  0
 20 43  1  0
M  CHG  1  23  -1
M  END
>  <Name>  (249) 
FULL_S8

>  <Comment>  (249) 
 Schrodinger Suite 2021-4.

>  <s_m_entry_id>  (249) 
1376

>  <class_value>  (249) 
0

>  <s_m_Source_Path>  (249) 
C:\Users\vinicius\Desktop

>  <s_m_Source_File>  (249) 
Ligands_Saureus_o.sdf

>  <i_m_Source_File_Index>  (249) 
222

>  <r_epik_Ionization_Penalty>  (249) 
2.2042

>  <r_epik_State_Penalty>  (249) 
2.3479

>  <i_epik_Tot_Q>  (249) 
-1

>  <i_f3d_flags>  (249) 
0

>  <s_m_job_name>  (249) 
Saureus_o

>  <FRED Chemgauss4 score>  (249) 
-14.695251

>  <Set>  (249) 
test

>  <HBA count>  (249) 
5

>  <HBD count>  (249) 
0

>  <ExactMolWt>  (249) 
349.1193806039104

>  <NumRotatableBounds>  (249) 
2

>  <FractionCsp3>  (249) 
0.2

>  <TPSA>  (249) 
74.60000000000001

>  <LogP_WildmanCrippen>  (249) 
2.5279000000000007

>  <General_Cluster>  (249) 
2

>  <Biological_Cluster>  (249) 
2

>  <Physicochemical_Cluster>  (249) 
2

>  <Structural_Cluster>  (249) 
3

$$$$
CHEMBL3322725
     RDKit          3D

 55 59  0  0  0  0  0  0  0  0999 V2000
  110.9363   70.3256   31.6588 C   0  0  0  0  0  0  0  0  0  0  0  0
  110.1102   69.2005   31.5940 C   0  0  0  0  0  0  0  0  0  0  0  0
  111.4809   70.7535   32.8773 C   0  0  0  0  0  0  0  0  0  0  0  0
  108.5623   64.2228   41.9114 C   0  0  0  0  0  0  0  0  0  0  0  0
  109.7982   68.4631   32.7401 C   0  0  0  0  0  0  0  0  0  0  0  0
  107.6082   63.3621   42.4426 C   0  0  0  0  0  0  0  0  0  0  0  0
  103.7715   61.5160   47.5088 C   0  0  0  0  0  0  0  0  0  0  0  0
  110.2469   62.9406   42.9953 C   0  0  0  0  0  0  0  0  0  0  0  0
  103.6315   61.5099   46.1437 C   0  0  0  0  0  0  0  0  0  0  0  0
  111.1805   70.0266   34.0425 C   0  0  0  0  0  0  0  0  0  0  0  0
  109.9090   64.0149   42.1882 C   0  0  0  0  0  0  0  0  0  0  0  0
  111.5186   70.1266   35.4179 C   0  0  0  0  0  0  0  0  0  0  0  0
  110.3542   68.9125   33.9364 C   0  0  0  0  0  0  0  0  0  0  0  0
  110.8853   69.0816   36.0499 C   0  0  0  0  0  0  0  0  0  0  0  0
  108.0491   62.3169   43.2382 C   0  0  0  0  0  0  0  0  0  0  0  0
  110.9440   64.9090   41.6406 C   0  0  0  0  0  0  0  0  0  0  0  0
  110.7835   65.7144   40.5800 C   0  0  0  0  0  0  0  0  0  0  0  0
  111.8539   66.5856   40.0624 C   0  0  0  0  0  0  0  0  0  0  0  0
  105.6908   61.5098   43.5979 C   0  0  0  0  0  0  0  0  0  0  0  0
  112.2990   68.2900   38.2111 C   0  0  0  0  0  0  0  0  0  0  0  0
  110.3442   67.4457   38.1307 C   0  0  0  0  0  0  0  0  0  0  0  0
  110.9576   68.7667   37.6025 C   0  0  0  0  0  0  0  0  0  0  0  0
  112.3787   71.1508   36.0421 C   0  0  0  0  0  0  0  0  0  0  0  0
  105.0114   60.3783   44.3469 C   0  0  0  0  0  0  0  0  0  0  0  0
  109.3484   62.0832   43.5294 N   0  0  0  0  0  0  0  0  0  0  0  0
  104.8562   60.7627   47.8628 N   0  0  0  0  0  0  0  0  0  0  0  0
  105.4016   60.2841   46.7499 N   0  0  0  0  0  0  0  0  0  0  0  0
  104.6659   60.7334   45.7203 N   0  0  0  0  0  0  0  0  0  0  0  0
  111.5163   67.3385   38.9758 N   0  0  0  0  0  0  0  0  0  0  0  0
  107.0807   61.4556   43.7681 N   0  0  0  0  0  0  0  0  0  0  0  0
  112.9549   66.5932   40.6071 O   0  0  0  0  0  0  0  0  0  0  0  0
  105.0607   62.3342   42.9438 O   0  0  0  0  0  0  0  0  0  0  0  0
  110.1763   68.3393   35.1599 O   0  0  0  0  0  0  0  0  0  0  0  0
  111.1628   70.8844   30.7388 H   0  0  0  0  0  0  0  0  0  0  0  0
  109.6976   68.8891   30.6230 H   0  0  0  0  0  0  0  0  0  0  0  0
  112.1303   71.6403   32.9210 H   0  0  0  0  0  0  0  0  0  0  0  0
  108.2530   65.0648   41.2747 H   0  0  0  0  0  0  0  0  0  0  0  0
  109.1489   67.5761   32.6998 H   0  0  0  0  0  0  0  0  0  0  0  0
  106.5371   63.5064   42.2377 H   0  0  0  0  0  0  0  0  0  0  0  0
  103.1116   62.0462   48.2112 H   0  0  0  0  0  0  0  0  0  0  0  0
  111.3119   62.7751   43.2151 H   0  0  0  0  0  0  0  0  0  0  0  0
  102.8651   62.0132   45.5359 H   0  0  0  0  0  0  0  0  0  0  0  0
  111.9241   64.9167   42.1400 H   0  0  0  0  0  0  0  0  0  0  0  0
  109.8075   65.7252   40.0728 H   0  0  0  0  0  0  0  0  0  0  0  0
  112.9988   67.8401   37.4915 H   0  0  0  0  0  0  0  0  0  0  0  0
  113.0056   68.9850   38.6883 H   0  0  0  0  0  0  0  0  0  0  0  0
  109.3935   67.5617   38.6718 H   0  0  0  0  0  0  0  0  0  0  0  0
  110.0316   66.6344   37.4569 H   0  0  0  0  0  0  0  0  0  0  0  0
  110.5248   69.7467   37.8521 H   0  0  0  0  0  0  0  0  0  0  0  0
  112.3103   71.0694   37.1369 H   0  0  0  0  0  0  0  0  0  0  0  0
  113.4212   70.9956   35.7273 H   0  0  0  0  0  0  0  0  0  0  0  0
  112.0456   72.1508   35.7273 H   0  0  0  0  0  0  0  0  0  0  0  0
  104.0894   60.1070   43.8119 H   0  0  0  0  0  0  0  0  0  0  0  0
  105.7208   59.5388   44.3913 H   0  0  0  0  0  0  0  0  0  0  0  0
  107.4336   60.6869   44.3558 H   0  0  0  0  0  0  0  0  0  0  0  0
  1  2  2  0
  1  3  1  0
  2  5  1  0
  3 10  2  0
  4  6  2  0
  4 11  1  0
  5 13  2  0
  6 15  1  0
  7  9  2  0
  7 26  1  0
  8 11  2  0
  8 25  1  0
  9 28  1  0
 10 12  1  0
 10 13  1  0
 11 16  1  0
 12 14  2  0
 12 23  1  0
 13 33  1  0
 14 22  1  0
 14 33  1  0
 15 25  2  0
 15 30  1  0
 16 17  2  0
 17 18  1  0
 18 29  1  0
 18 31  2  0
 19 24  1  0
 19 30  1  0
 19 32  2  0
 20 22  1  0
 20 29  1  0
 21 22  1  0
 21 29  1  0
 24 28  1  0
 26 27  2  0
 27 28  1  0
  1 34  1  0
  2 35  1  0
  3 36  1  0
  4 37  1  0
  5 38  1  0
  6 39  1  0
  7 40  1  0
  8 41  1  0
  9 42  1  0
 16 43  1  0
 17 44  1  0
 20 45  1  0
 20 46  1  0
 21 47  1  0
 21 48  1  0
 22 49  1  0
 23 50  1  0
 23 51  1  0
 23 52  1  0
 24 53  1  0
 24 54  1  0
 30 55  1  0
M  END
>  <Name>  (250) 
CHEMBL3322725

>  <Comment>  (250) 
 Schrodinger Suite 2021-4.

>  <s_m_entry_id>  (250) 
1189

>  <class_value>  (250) 
1

>  <s_m_Source_Path>  (250) 
C:\Users\vinicius\Desktop

>  <s_m_Source_File>  (250) 
Ligands_Saureus_o.sdf

>  <i_m_Source_File_Index>  (250) 
91

>  <r_lp_tautomer_probability>  (250) 
1

>  <r_epik_Ionization_Penalty>  (250) 
0

>  <r_epik_State_Penalty>  (250) 
0

>  <i_epik_Tot_Q>  (250) 
0

>  <i_f3d_flags>  (250) 
0

>  <s_m_job_name>  (250) 
Saureus_o

>  <FRED Chemgauss4 score>  (250) 
-9.065630

>  <Set>  (250) 
test

>  <HBA count>  (250) 
7

>  <HBD count>  (250) 
1

>  <ExactMolWt>  (250) 
442.1753385640007

>  <NumRotatableBounds>  (250) 
7

>  <FractionCsp3>  (250) 
0.20833333333333334

>  <TPSA>  (250) 
106.14999999999999

>  <LogP_WildmanCrippen>  (250) 
3.0056200000000013

>  <General_Cluster>  (250) 
1

>  <Biological_Cluster>  (250) 
1

>  <Physicochemical_Cluster>  (250) 
4

>  <Structural_Cluster>  (250) 
2

$$$$
CHEMBL3322727
     RDKit          3D

 52 56  0  0  0  0  0  0  0  0999 V2000
  110.0011   70.1670   32.0585 C   0  0  0  0  0  0  0  0  0  0  0  0
  109.8435   68.8084   31.7730 C   0  0  0  0  0  0  0  0  0  0  0  0
  110.3851   70.5975   33.3360 C   0  0  0  0  0  0  0  0  0  0  0  0
  110.0629   67.8320   32.7493 C   0  0  0  0  0  0  0  0  0  0  0  0
  108.7570   64.1200   42.6221 C   0  0  0  0  0  0  0  0  0  0  0  0
  108.1554   66.3965   42.6647 C   0  0  0  0  0  0  0  0  0  0  0  0
  110.6112   69.6327   34.3331 C   0  0  0  0  0  0  0  0  0  0  0  0
  109.0074   65.4200   42.2089 C   0  0  0  0  0  0  0  0  0  0  0  0
  107.6771   63.8077   43.4746 C   0  0  0  0  0  0  0  0  0  0  0  0
  110.9973   69.6547   35.6993 C   0  0  0  0  0  0  0  0  0  0  0  0
  110.4438   68.2902   34.0091 C   0  0  0  0  0  0  0  0  0  0  0  0
  111.0392   68.3429   36.1116 C   0  0  0  0  0  0  0  0  0  0  0  0
  106.8490   64.8651   43.8550 C   0  0  0  0  0  0  0  0  0  0  0  0
  104.9993   63.7123   45.1801 C   0  0  0  0  0  0  0  0  0  0  0  0
  110.1248   65.7357   41.3395 C   0  0  0  0  0  0  0  0  0  0  0  0
  110.7845   64.8583   40.5459 C   0  0  0  0  0  0  0  0  0  0  0  0
  111.9233   65.2256   39.6850 C   0  0  0  0  0  0  0  0  0  0  0  0
  107.5543   62.3577   43.8545 C   0  0  0  0  0  0  0  0  0  0  0  0
  105.3381   62.3117   44.7653 C   0  0  0  0  0  0  0  0  0  0  0  0
  112.5149   66.7652   37.7331 C   0  0  0  0  0  0  0  0  0  0  0  0
  110.4666   66.8796   38.3093 C   0  0  0  0  0  0  0  0  0  0  0  0
  111.4218   67.8493   37.5693 C   0  0  0  0  0  0  0  0  0  0  0  0
  111.2933   70.8502   36.5126 C   0  0  0  0  0  0  0  0  0  0  0  0
  107.1009   66.1488   43.4685 N   0  0  0  0  0  0  0  0  0  0  0  0
  105.7030   64.7706   44.6729 N   0  0  0  0  0  0  0  0  0  0  0  0
  106.7384   62.0499   45.0143 N   0  0  0  0  0  0  0  0  0  0  0  0
  111.6555   66.1714   38.7388 N   0  0  0  0  0  0  0  0  0  0  0  0
  104.0327   63.9026   45.9278 O   0  0  0  0  0  0  0  0  0  0  0  0
  113.0145   64.6858   39.8490 O   0  0  0  0  0  0  0  0  0  0  0  0
  110.7049   67.5074   35.0937 O   0  0  0  0  0  0  0  0  0  0  0  0
  109.8210   70.9106   31.2682 H   0  0  0  0  0  0  0  0  0  0  0  0
  109.5411   68.5012   30.7610 H   0  0  0  0  0  0  0  0  0  0  0  0
  110.5071   71.6688   33.5539 H   0  0  0  0  0  0  0  0  0  0  0  0
  109.9414   66.7600   32.5346 H   0  0  0  0  0  0  0  0  0  0  0  0
  109.4176   63.3113   42.2761 H   0  0  0  0  0  0  0  0  0  0  0  0
  108.3432   67.4360   42.3578 H   0  0  0  0  0  0  0  0  0  0  0  0
  110.4670   66.7810   41.3232 H   0  0  0  0  0  0  0  0  0  0  0  0
  110.4508   63.8101   40.5437 H   0  0  0  0  0  0  0  0  0  0  0  0
  107.1239   61.8241   42.9943 H   0  0  0  0  0  0  0  0  0  0  0  0
  108.5728   62.0460   44.1294 H   0  0  0  0  0  0  0  0  0  0  0  0
  104.7262   61.6024   45.3419 H   0  0  0  0  0  0  0  0  0  0  0  0
  105.1327   62.1923   43.6913 H   0  0  0  0  0  0  0  0  0  0  0  0
  112.6839   66.1413   36.8430 H   0  0  0  0  0  0  0  0  0  0  0  0
  113.5658   67.0189   37.9363 H   0  0  0  0  0  0  0  0  0  0  0  0
  109.8824   67.3368   39.1216 H   0  0  0  0  0  0  0  0  0  0  0  0
  109.6352   66.3724   37.7980 H   0  0  0  0  0  0  0  0  0  0  0  0
  111.5764   68.8833   37.9114 H   0  0  0  0  0  0  0  0  0  0  0  0
  111.2295   70.5925   37.5801 H   0  0  0  0  0  0  0  0  0  0  0  0
  112.3073   71.2087   36.2819 H   0  0  0  0  0  0  0  0  0  0  0  0
  110.5637   71.6404   36.2819 H   0  0  0  0  0  0  0  0  0  0  0  0
  105.3169   65.6863   44.9438 H   0  0  0  0  0  0  0  0  0  0  0  0
  106.8554   61.0542   45.2504 H   0  0  0  0  0  0  0  0  0  0  0  0
  1  2  2  0
  1  3  1  0
  2  4  1  0
  3  7  2  0
  4 11  2  0
  5  8  2  0
  5  9  1  0
  6  8  1  0
  6 24  2  0
  7 10  1  0
  7 11  1  0
  8 15  1  0
  9 13  2  0
  9 18  1  0
 10 12  2  0
 10 23  1  0
 11 30  1  0
 12 22  1  0
 12 30  1  0
 13 24  1  0
 13 25  1  0
 14 19  1  0
 14 25  1  0
 14 28  2  0
 15 16  2  0
 16 17  1  0
 17 27  1  0
 17 29  2  0
 18 26  1  0
 19 26  1  0
 20 22  1  0
 20 27  1  0
 21 22  1  0
 21 27  1  0
  1 31  1  0
  2 32  1  0
  3 33  1  0
  4 34  1  0
  5 35  1  0
  6 36  1  0
 15 37  1  0
 16 38  1  0
 18 39  1  0
 18 40  1  0
 19 41  1  0
 19 42  1  0
 20 43  1  0
 20 44  1  0
 21 45  1  0
 21 46  1  0
 22 47  1  0
 23 48  1  0
 23 49  1  0
 23 50  1  0
 25 51  1  0
 26 52  1  0
M  END
>  <Name>  (251) 
CHEMBL3322727

>  <Comment>  (251) 
 Schrodinger Suite 2021-4.

>  <s_m_entry_id>  (251) 
1163

>  <class_value>  (251) 
1

>  <s_m_Source_Path>  (251) 
C:\Users\vinicius\Desktop

>  <s_m_Source_File>  (251) 
Ligands_Saureus_o.sdf

>  <i_m_Source_File_Index>  (251) 
70

>  <r_epik_Ionization_Penalty>  (251) 
0.8298

>  <r_epik_State_Penalty>  (251) 
0.863

>  <i_epik_Tot_Q>  (251) 
0

>  <i_f3d_flags>  (251) 
0

>  <s_m_job_name>  (251) 
Saureus_o

>  <FRED Chemgauss4 score>  (251) 
-14.081247

>  <Set>  (251) 
test

>  <HBA count>  (251) 
5

>  <HBD count>  (251) 
2

>  <ExactMolWt>  (251) 
402.16919056400064

>  <NumRotatableBounds>  (251) 
4

>  <FractionCsp3>  (251) 
0.2608695652173913

>  <TPSA>  (251) 
87.47000000000001

>  <LogP_WildmanCrippen>  (251) 
2.817120000000001

>  <General_Cluster>  (251) 
1

>  <Biological_Cluster>  (251) 
1

>  <Physicochemical_Cluster>  (251) 
1

>  <Structural_Cluster>  (251) 
2

$$$$
CHEMBL4209594
     RDKit          3D

 46 48  0  0  1  0  0  0  0  0999 V2000
  111.3847   72.7423   32.3778 C   0  0  0  0  0  0  0  0  0  0  0  0
  110.8582   72.3404   33.6053 C   0  0  0  0  0  0  0  0  0  0  0  0
  111.6689   71.7928   31.3962 C   0  0  0  0  0  0  0  0  0  0  0  0
  109.9837   67.1843   39.7124 C   0  0  0  0  0  0  0  0  0  0  0  0
  110.6160   70.9889   33.8514 C   0  0  0  0  0  0  0  0  0  0  0  0
  111.4268   70.4414   31.6423 C   0  0  0  0  0  0  0  0  0  0  0  0
  109.7667   67.6566   41.0020 C   0  0  0  0  0  0  0  0  0  0  0  0
  111.9674   66.1270   40.4892 C   0  0  0  0  0  0  0  0  0  0  0  0
  111.1027   66.4043   39.4427 C   0  0  0  0  0  0  0  0  0  0  0  0
  110.9003   70.0394   32.8699 C   0  0  0  0  0  0  0  0  0  0  0  0
  110.6912   67.3231   41.9787 C   0  0  0  0  0  0  0  0  0  0  0  0
  111.3607   65.8889   38.0869 C   0  0  0  0  0  0  0  0  0  0  0  0
  110.8317   66.3878   36.9597 C   0  0  0  0  0  0  0  0  0  0  0  0
  111.1133   65.8300   35.6221 C   0  0  0  0  0  0  0  0  0  0  0  0
  109.4019   68.5936   43.7245 C   0  0  0  0  0  0  0  0  0  0  0  0
  111.5541   67.5666   32.4200 C   0  0  0  0  0  0  0  0  0  0  0  0
  111.3432   66.2799   33.2011 C   0  0  0  0  0  0  0  0  0  0  0  0
  110.7973   68.1486   34.6054 C   0  0  0  0  0  0  0  0  0  0  0  0
  110.6380   68.5731   33.1362 C   0  0  1  0  0  0  0  0  0  0  0  0
  109.5198   68.8949   45.1975 C   0  0  0  0  0  0  0  0  0  0  0  0
  111.7899   66.5679   41.7548 N   0  0  0  0  0  0  0  0  0  0  0  0
  111.0775   66.7150   34.5620 N   0  0  0  0  0  0  0  0  0  0  0  0
  110.4637   67.8031   43.2741 N   0  0  0  0  0  0  0  0  0  0  0  0
  111.3647   64.6294   35.5219 O   0  0  0  0  0  0  0  0  0  0  0  0
  108.4578   69.0228   43.0692 O   0  0  0  0  0  0  0  0  0  0  0  0
  111.5758   73.8081   32.1838 H   0  0  0  0  0  0  0  0  0  0  0  0
  110.6340   73.0892   34.3793 H   0  0  0  0  0  0  0  0  0  0  0  0
  112.0839   72.1098   30.4281 H   0  0  0  0  0  0  0  0  0  0  0  0
  109.2729   67.4268   38.9087 H   0  0  0  0  0  0  0  0  0  0  0  0
  110.2008   70.6719   34.8195 H   0  0  0  0  0  0  0  0  0  0  0  0
  111.6511   69.6926   30.8683 H   0  0  0  0  0  0  0  0  0  0  0  0
  108.8888   68.2755   41.2394 H   0  0  0  0  0  0  0  0  0  0  0  0
  112.8530   65.5100   40.2771 H   0  0  0  0  0  0  0  0  0  0  0  0
  112.0395   65.0286   37.9916 H   0  0  0  0  0  0  0  0  0  0  0  0
  110.1566   67.2529   37.0355 H   0  0  0  0  0  0  0  0  0  0  0  0
  112.6050   67.8880   32.4675 H   0  0  0  0  0  0  0  0  0  0  0  0
  111.3229   67.4618   31.3497 H   0  0  0  0  0  0  0  0  0  0  0  0
  110.4873   65.7178   32.7993 H   0  0  0  0  0  0  0  0  0  0  0  0
  112.2125   65.6086   33.1406 H   0  0  0  0  0  0  0  0  0  0  0  0
  111.6313   68.6906   35.0752 H   0  0  0  0  0  0  0  0  0  0  0  0
  109.8985   68.3740   35.1981 H   0  0  0  0  0  0  0  0  0  0  0  0
  109.6038   68.5275   32.7642 H   0  0  0  0  0  0  0  0  0  0  0  0
  109.1793   68.0249   45.7781 H   0  0  0  0  0  0  0  0  0  0  0  0
  110.5694   69.1125   45.4444 H   0  0  0  0  0  0  0  0  0  0  0  0
  108.8966   69.7671   45.4444 H   0  0  0  0  0  0  0  0  0  0  0  0
  111.1645   67.5418   43.9823 H   0  0  0  0  0  0  0  0  0  0  0  0
  1  2  2  0
  1  3  1  0
  2  5  1  0
  3  6  2  0
  4  7  2  0
  4  9  1  0
  5 10  2  0
  6 10  1  0
  7 11  1  0
  8  9  2  0
  8 21  1  0
  9 12  1  0
 10 19  1  0
 11 21  2  0
 11 23  1  0
 12 13  2  0
 13 14  1  0
 14 22  1  0
 14 24  2  0
 15 20  1  0
 15 23  1  0
 15 25  2  0
 16 17  1  0
 16 19  1  0
 17 22  1  0
 18 19  1  0
 18 22  1  0
  1 26  1  0
  2 27  1  0
  3 28  1  0
  4 29  1  0
  5 30  1  0
  6 31  1  0
  7 32  1  0
  8 33  1  0
 12 34  1  0
 13 35  1  0
 16 36  1  0
 16 37  1  0
 17 38  1  0
 17 39  1  0
 18 40  1  0
 18 41  1  0
 19 42  1  6
 20 43  1  0
 20 44  1  0
 20 45  1  0
 23 46  1  0
M  END
>  <Name>  (252) 
CHEMBL4209594

>  <Comment>  (252) 
 Schrodinger Suite 2021-4.

>  <s_m_entry_id>  (252) 
1439

>  <s_m_Source_Path>  (252) 
C:\Users\vinicius\Desktop

>  <s_m_Source_File>  (252) 
Ligands_Saureus_failomega.smi

>  <i_m_Source_File_Index>  (252) 
8

>  <r_lp_tautomer_probability>  (252) 
1

>  <r_epik_Ionization_Penalty>  (252) 
0.0001

>  <r_epik_State_Penalty>  (252) 
0

>  <i_epik_Tot_Q>  (252) 
0

>  <i_f3d_flags>  (252) 
0

>  <s_m_job_name>  (252) 
Saureus_fail

>  <class_value>  (252) 
0

>  <FRED Chemgauss4 score>  (252) 
-13.336222

>  <Set>  (252) 
test

>  <HBA count>  (252) 
3

>  <HBD count>  (252) 
1

>  <ExactMolWt>  (252) 
335.16337691200056

>  <NumRotatableBounds>  (252) 
5

>  <FractionCsp3>  (252) 
0.25

>  <TPSA>  (252) 
62.300000000000004

>  <LogP_WildmanCrippen>  (252) 
3.069300000000001

>  <General_Cluster>  (252) 
2

>  <Biological_Cluster>  (252) 
2

>  <Physicochemical_Cluster>  (252) 
2

>  <Structural_Cluster>  (252) 
3

$$$$
CHEMBL570866
     RDKit          3D

 51 54  0  0  0  0  0  0  0  0999 V2000
  111.9660   72.8125   35.3624 C   0  0  0  0  0  0  0  0  0  0  0  0
  112.1791   72.2272   36.6131 C   0  0  0  0  0  0  0  0  0  0  0  0
  111.3434   72.1007   34.3277 C   0  0  0  0  0  0  0  0  0  0  0  0
  111.7797   70.9136   36.8766 C   0  0  0  0  0  0  0  0  0  0  0  0
  109.8047   66.8375   39.4306 C   0  0  0  0  0  0  0  0  0  0  0  0
  112.0593   66.6542   40.0994 C   0  0  0  0  0  0  0  0  0  0  0  0
  110.9333   70.7782   34.5707 C   0  0  0  0  0  0  0  0  0  0  0  0
  111.1265   66.5984   39.0891 C   0  0  0  0  0  0  0  0  0  0  0  0
  109.4446   67.1297   40.7570 C   0  0  0  0  0  0  0  0  0  0  0  0
  110.2930   69.7585   33.8183 C   0  0  0  0  0  0  0  0  0  0  0  0
  111.1635   70.2315   35.8290 C   0  0  0  0  0  0  0  0  0  0  0  0
  110.1766   68.6735   34.6559 C   0  0  0  0  0  0  0  0  0  0  0  0
  110.4572   67.1461   41.7321 C   0  0  0  0  0  0  0  0  0  0  0  0
  108.1787   68.6761   43.1827 C   0  0  0  0  0  0  0  0  0  0  0  0
  111.5117   66.3011   37.7224 C   0  0  0  0  0  0  0  0  0  0  0  0
  110.6791   65.8519   36.7531 C   0  0  0  0  0  0  0  0  0  0  0  0
  111.2046   65.5502   35.3890 C   0  0  0  0  0  0  0  0  0  0  0  0
  107.9881   67.3729   41.0556 C   0  0  0  0  0  0  0  0  0  0  0  0
  108.9444   67.4950   43.7233 C   0  0  0  0  0  0  0  0  0  0  0  0
  109.8405   69.8426   32.4164 C   0  0  0  0  0  0  0  0  0  0  0  0
  111.0853   66.0255   32.9732 C   0  0  0  0  0  0  0  0  0  0  0  0
  109.6025   67.2970   34.4832 C   0  0  0  0  0  0  0  0  0  0  0  0
  111.7561   66.9190   41.3890 N   0  0  0  0  0  0  0  0  0  0  0  0
  110.2310   67.3993   43.0724 N   0  0  0  0  0  0  0  0  0  0  0  0
  107.7675   68.5519   41.8726 N   0  0  0  0  0  0  0  0  0  0  0  0
  110.6458   66.2834   34.3384 N   0  0  0  0  0  0  0  0  0  0  0  0
  107.9476   69.6692   43.8709 O   0  0  0  0  0  0  0  0  0  0  0  0
  112.0636   64.6793   35.2430 O   0  0  0  0  0  0  0  0  0  0  0  0
  110.7019   68.9502   35.8779 O   0  0  0  0  0  0  0  0  0  0  0  0
  112.2920   73.8483   35.1869 H   0  0  0  0  0  0  0  0  0  0  0  0
  112.6704   72.8110   37.4054 H   0  0  0  0  0  0  0  0  0  0  0  0
  111.1790   72.5676   33.3453 H   0  0  0  0  0  0  0  0  0  0  0  0
  111.9430   70.4438   37.8577 H   0  0  0  0  0  0  0  0  0  0  0  0
  109.0275   66.7980   38.6532 H   0  0  0  0  0  0  0  0  0  0  0  0
  113.1132   66.4726   39.8419 H   0  0  0  0  0  0  0  0  0  0  0  0
  112.5668   66.4530   37.4510 H   0  0  0  0  0  0  0  0  0  0  0  0
  109.6107   65.7088   36.9722 H   0  0  0  0  0  0  0  0  0  0  0  0
  107.4513   67.5001   40.1039 H   0  0  0  0  0  0  0  0  0  0  0  0
  107.6183   66.5054   41.6219 H   0  0  0  0  0  0  0  0  0  0  0  0
  109.0925   67.6217   44.8059 H   0  0  0  0  0  0  0  0  0  0  0  0
  108.3729   66.5753   43.5297 H   0  0  0  0  0  0  0  0  0  0  0  0
  108.7593   70.0435   32.3915 H   0  0  0  0  0  0  0  0  0  0  0  0
  110.3765   70.6565   31.9063 H   0  0  0  0  0  0  0  0  0  0  0  0
  110.0483   68.8905   31.9063 H   0  0  0  0  0  0  0  0  0  0  0  0
  112.0339   65.4689   32.9924 H   0  0  0  0  0  0  0  0  0  0  0  0
  110.3223   65.4318   32.4483 H   0  0  0  0  0  0  0  0  0  0  0  0
  111.2314   66.9811   32.4483 H   0  0  0  0  0  0  0  0  0  0  0  0
  108.9910   67.0540   35.3647 H   0  0  0  0  0  0  0  0  0  0  0  0
  108.9960   67.2942   33.5655 H   0  0  0  0  0  0  0  0  0  0  0  0
  111.0621   67.5330   43.6659 H   0  0  0  0  0  0  0  0  0  0  0  0
  107.2716   69.3475   41.4460 H   0  0  0  0  0  0  0  0  0  0  0  0
  1  2  2  0
  1  3  1  0
  2  4  1  0
  3  7  2  0
  4 11  2  0
  5  8  2  0
  5  9  1  0
  6  8  1  0
  6 23  2  0
  7 10  1  0
  7 11  1  0
  8 15  1  0
  9 13  2  0
  9 18  1  0
 10 12  2  0
 10 20  1  0
 11 29  1  0
 12 22  1  0
 12 29  1  0
 13 23  1  0
 13 24  1  0
 14 19  1  0
 14 25  1  0
 14 27  2  0
 15 16  2  0
 16 17  1  0
 17 26  1  0
 17 28  2  0
 18 25  1  0
 19 24  1  0
 21 26  1  0
 22 26  1  0
  1 30  1  0
  2 31  1  0
  3 32  1  0
  4 33  1  0
  5 34  1  0
  6 35  1  0
 15 36  1  0
 16 37  1  0
 18 38  1  0
 18 39  1  0
 19 40  1  0
 19 41  1  0
 20 42  1  0
 20 43  1  0
 20 44  1  0
 21 45  1  0
 21 46  1  0
 21 47  1  0
 22 48  1  0
 22 49  1  0
 24 50  1  0
 25 51  1  0
M  END
>  <Name>  (253) 
CHEMBL570866

>  <Comment>  (253) 
 Schrodinger Suite 2021-4.

>  <s_m_entry_id>  (253) 
1355

>  <class_value>  (253) 
1

>  <s_m_Source_Path>  (253) 
C:\Users\vinicius\Desktop

>  <s_m_Source_File>  (253) 
Ligands_Saureus_o.sdf

>  <i_m_Source_File_Index>  (253) 
208

>  <r_epik_Ionization_Penalty>  (253) 
0.0188

>  <r_epik_State_Penalty>  (253) 
0.015

>  <i_epik_Tot_Q>  (253) 
0

>  <i_f3d_flags>  (253) 
0

>  <s_m_job_name>  (253) 
Saureus_o

>  <FRED Chemgauss4 score>  (253) 
-18.168438

>  <Set>  (253) 
test

>  <HBA count>  (253) 
5

>  <HBD count>  (253) 
2

>  <ExactMolWt>  (253) 
390.16919056400064

>  <NumRotatableBounds>  (253) 
6

>  <FractionCsp3>  (253) 
0.22727272727272727

>  <TPSA>  (253) 
87.47000000000001

>  <LogP_WildmanCrippen>  (253) 
2.8497200000000014

>  <General_Cluster>  (253) 
1

>  <Biological_Cluster>  (253) 
1

>  <Physicochemical_Cluster>  (253) 
1

>  <Structural_Cluster>  (253) 
2

$$$$
CHEMBL3322722
     RDKit          3D

 43 46  0  0  0  0  0  0  0  0999 V2000
  106.9329   65.8855   44.5037 C   0  0  0  0  0  0  0  0  0  0  0  0
  105.9927   65.0422   43.9224 C   0  0  0  0  0  0  0  0  0  0  0  0
  108.1171   66.1660   43.8310 C   0  0  0  0  0  0  0  0  0  0  0  0
  111.7200   69.6922   36.7857 C   0  0  0  0  0  0  0  0  0  0  0  0
  106.2820   64.5090   42.6767 C   0  0  0  0  0  0  0  0  0  0  0  0
  110.7673   68.0054   35.4115 C   0  0  0  0  0  0  0  0  0  0  0  0
  111.3738   68.3590   36.6038 C   0  0  0  0  0  0  0  0  0  0  0  0
  111.4708   70.6196   35.7730 C   0  0  0  0  0  0  0  0  0  0  0  0
  108.3114   65.5823   42.5895 C   0  0  0  0  0  0  0  0  0  0  0  0
  110.8609   70.1649   34.6044 C   0  0  0  0  0  0  0  0  0  0  0  0
  111.0191   72.3952   33.5625 C   0  0  0  0  0  0  0  0  0  0  0  0
  111.6263   67.3714   37.6371 C   0  0  0  0  0  0  0  0  0  0  0  0
  111.0168   66.1674   37.7478 C   0  0  0  0  0  0  0  0  0  0  0  0
  111.3007   65.1999   38.8231 C   0  0  0  0  0  0  0  0  0  0  0  0
  111.7403   72.0814   35.9646 C   0  0  0  0  0  0  0  0  0  0  0  0
  112.0290   72.7560   34.6328 C   0  0  0  0  0  0  0  0  0  0  0  0
  109.4659   66.2676   40.2457 C   0  0  0  0  0  0  0  0  0  0  0  0
  110.3923   64.5914   41.1799 C   0  0  0  0  0  0  0  0  0  0  0  0
  109.6162   65.8188   41.7197 C   0  0  0  0  0  0  0  0  0  0  0  0
  107.4212   64.7582   41.9928 N   0  0  0  0  0  0  0  0  0  0  0  0
  110.4960   68.8750   34.4128 N   0  0  0  0  0  0  0  0  0  0  0  0
  110.5773   71.0871   33.5789 N   0  0  0  0  0  0  0  0  0  0  0  0
  110.5287   65.3295   39.9405 N   0  0  0  0  0  0  0  0  0  0  0  0
  110.6990   73.2004   32.6883 O   0  0  0  0  0  0  0  0  0  0  0  0
  112.1826   64.3581   38.6728 O   0  0  0  0  0  0  0  0  0  0  0  0
  106.7407   66.3290   45.4918 H   0  0  0  0  0  0  0  0  0  0  0  0
  105.0488   64.8057   44.4354 H   0  0  0  0  0  0  0  0  0  0  0  0
  108.8757   66.8303   44.2706 H   0  0  0  0  0  0  0  0  0  0  0  0
  112.1896   70.0162   37.7262 H   0  0  0  0  0  0  0  0  0  0  0  0
  105.5389   63.8417   42.2157 H   0  0  0  0  0  0  0  0  0  0  0  0
  110.4886   66.9511   35.2674 H   0  0  0  0  0  0  0  0  0  0  0  0
  112.3798   67.6235   38.3978 H   0  0  0  0  0  0  0  0  0  0  0  0
  110.2660   65.8954   36.9912 H   0  0  0  0  0  0  0  0  0  0  0  0
  110.8595   72.5533   36.4245 H   0  0  0  0  0  0  0  0  0  0  0  0
  112.6195   72.1956   36.6157 H   0  0  0  0  0  0  0  0  0  0  0  0
  113.0283   72.4478   34.2917 H   0  0  0  0  0  0  0  0  0  0  0  0
  111.9702   73.8429   34.7917 H   0  0  0  0  0  0  0  0  0  0  0  0
  108.4945   66.0303   39.7873 H   0  0  0  0  0  0  0  0  0  0  0  0
  109.5146   67.3253   39.9475 H   0  0  0  0  0  0  0  0  0  0  0  0
  111.3392   64.3792   41.6979 H   0  0  0  0  0  0  0  0  0  0  0  0
  109.9756   63.5739   41.2130 H   0  0  0  0  0  0  0  0  0  0  0  0
  110.0430   66.4826   42.4860 H   0  0  0  0  0  0  0  0  0  0  0  0
  110.0018   70.7643   32.7880 H   0  0  0  0  0  0  0  0  0  0  0  0
  1  2  2  0
  1  3  1  0
  2  5  1  0
  3  9  2  0
  4  7  2  0
  4  8  1  0
  5 20  2  0
  6  7  1  0
  6 21  2  0
  7 12  1  0
  8 10  2  0
  8 15  1  0
  9 19  1  0
  9 20  1  0
 10 21  1  0
 10 22  1  0
 11 16  1  0
 11 22  1  0
 11 24  2  0
 12 13  2  0
 13 14  1  0
 14 23  1  0
 14 25  2  0
 15 16  1  0
 17 19  1  0
 17 23  1  0
 18 19  1  0
 18 23  1  0
  1 26  1  0
  2 27  1  0
  3 28  1  0
  4 29  1  0
  5 30  1  0
  6 31  1  0
 12 32  1  0
 13 33  1  0
 15 34  1  0
 15 35  1  0
 16 36  1  0
 16 37  1  0
 17 38  1  0
 17 39  1  0
 18 40  1  0
 18 41  1  0
 19 42  1  0
 22 43  1  0
M  END
>  <Name>  (254) 
CHEMBL3322722

>  <Comment>  (254) 
 Schrodinger Suite 2021-4.

>  <s_m_entry_id>  (254) 
1141

>  <class_value>  (254) 
1

>  <s_m_Source_Path>  (254) 
C:\Users\vinicius\Desktop

>  <s_m_Source_File>  (254) 
Ligands_Saureus_o.sdf

>  <i_m_Source_File_Index>  (254) 
55

>  <r_epik_Ionization_Penalty>  (254) 
0.0087

>  <r_epik_State_Penalty>  (254) 
0.0064

>  <i_epik_Tot_Q>  (254) 
0

>  <i_f3d_flags>  (254) 
0

>  <s_m_job_name>  (254) 
Saureus_o

>  <FRED Chemgauss4 score>  (254) 
-13.113570

>  <Set>  (254) 
test

>  <HBA count>  (254) 
4

>  <HBD count>  (254) 
1

>  <ExactMolWt>  (254) 
334.1429758160005

>  <NumRotatableBounds>  (254) 
3

>  <FractionCsp3>  (254) 
0.2631578947368421

>  <TPSA>  (254) 
75.19

>  <LogP_WildmanCrippen>  (254) 
2.0005

>  <General_Cluster>  (254) 
5

>  <Biological_Cluster>  (254) 
1

>  <Physicochemical_Cluster>  (254) 
4

>  <Structural_Cluster>  (254) 
3

$$$$
Zheng_6
     RDKit          3D

 59 63  0  0  1  0  0  0  0  0999 V2000
  109.8101   67.8717   34.0127 C   0  0  0  0  0  0  0  0  0  0  0  0
  109.9198   69.2168   34.4175 C   0  0  0  0  0  0  0  0  0  0  0  0
  110.1616   66.8279   34.8724 C   0  0  0  0  0  0  0  0  0  0  0  0
  110.3772   69.5523   35.6950 C   0  0  0  0  0  0  0  0  0  0  0  0
  110.0149   68.9558   43.8525 C   0  0  0  0  0  0  0  0  0  0  0  0
  108.1323   67.9105   44.3661 C   0  0  0  0  0  0  0  0  0  0  0  0
  110.6048   67.1637   36.1349 C   0  0  0  0  0  0  0  0  0  0  0  0
  110.7122   68.5182   36.5468 C   0  0  0  0  0  0  0  0  0  0  0  0
  109.9031   67.8641   43.0385 C   0  0  0  0  0  0  0  0  0  0  0  0
  110.6860   64.9644   37.6086 C   0  0  0  0  0  0  0  0  0  0  0  0
  110.9530   64.5180   38.8519 C   0  0  0  0  0  0  0  0  0  0  0  0
  110.5407   67.3611   40.7243 C   0  0  0  0  0  0  0  0  0  0  0  0
  111.6126   65.4322   39.8728 C   0  0  0  0  0  0  0  0  0  0  0  0
  109.1992   67.6790   40.1483 C   0  0  0  0  0  0  0  0  0  0  0  0
  113.8177   67.0958   39.1180 C   0  0  0  0  0  0  0  0  0  0  0  0
  110.8294   67.4524   42.0233 C   0  0  0  0  0  0  0  0  0  0  0  0
  113.3767   66.1048   38.3332 C   0  0  0  0  0  0  0  0  0  0  0  0
  111.1545   66.3280   37.2560 C   0  0  2  0  0  0  0  0  0  0  0  0
  110.7560   67.2746   38.4321 C   0  0  2  0  0  0  0  0  0  0  0  0
  112.9605   64.9739   36.1661 C   0  0  0  0  0  0  0  0  0  0  0  0
  113.0972   67.4689   36.1750 C   0  0  0  0  0  0  0  0  0  0  0  0
  111.3567   62.2716   38.4414 C   0  0  0  0  0  0  0  0  0  0  0  0
  111.9196   70.7405   38.3759 C   0  0  0  0  0  0  0  0  0  0  0  0
  112.6922   66.2363   36.9901 C   0  0  0  0  0  0  0  0  0  0  0  0
  108.7294   67.2356   43.3785 N   0  0  0  0  0  0  0  0  0  0  0  0
  108.9055   68.9599   44.6633 N   0  0  0  0  0  4  0  0  0  0  0  0
  109.3372   67.4014   38.7839 N   0  0  0  0  0  0  0  0  0  0  0  0
  111.1545   68.6020   37.9089 N   0  0  0  0  0  0  0  0  0  0  0  0
  111.3286   66.8163   39.7081 N   0  0  0  0  0  0  0  0  0  0  0  0
  112.2077   64.9426   40.8315 O   0  0  0  0  0  0  0  0  0  0  0  0
  108.2141   68.0531   40.7570 O   0  0  0  0  0  0  0  0  0  0  0  0
  110.6728   63.2218   39.2236 O   0  0  0  0  0  0  0  0  0  0  0  0
  110.9409   69.7247   38.6844 O   0  0  0  0  0  0  0  0  0  0  0  0
  109.4415   67.6394   33.0027 H   0  0  0  0  0  0  0  0  0  0  0  0
  109.6406   70.0168   33.7160 H   0  0  0  0  0  0  0  0  0  0  0  0
  110.0877   65.7775   34.5544 H   0  0  0  0  0  0  0  0  0  0  0  0
  110.4671   70.6022   36.0105 H   0  0  0  0  0  0  0  0  0  0  0  0
  110.8345   69.6895   43.8577 H   0  0  0  0  0  0  0  0  0  0  0  0
  107.1780   67.6497   44.8469 H   0  0  0  0  0  0  0  0  0  0  0  0
  110.1418   64.3421   36.8830 H   0  0  0  0  0  0  0  0  0  0  0  0
  114.3017   66.8632   40.0780 H   0  0  0  0  0  0  0  0  0  0  0  0
  113.6961   68.1426   38.8028 H   0  0  0  0  0  0  0  0  0  0  0  0
  111.8509   67.1935   42.3388 H   0  0  0  0  0  0  0  0  0  0  0  0
  113.5289   65.0812   38.7062 H   0  0  0  0  0  0  0  0  0  0  0  0
  113.1408   64.1257   36.8429 H   0  0  0  0  0  0  0  0  0  0  0  0
  112.0882   64.7578   35.5317 H   0  0  0  0  0  0  0  0  0  0  0  0
  113.8453   65.1313   35.5317 H   0  0  0  0  0  0  0  0  0  0  0  0
  113.3663   68.2880   36.8581 H   0  0  0  0  0  0  0  0  0  0  0  0
  113.9613   67.2214   35.5409 H   0  0  0  0  0  0  0  0  0  0  0  0
  112.2547   67.7822   35.5409 H   0  0  0  0  0  0  0  0  0  0  0  0
  111.8714   61.5565   39.1000 H   0  0  0  0  0  0  0  0  0  0  0  0
  110.6376   61.7333   37.8065 H   0  0  0  0  0  0  0  0  0  0  0  0
  112.0955   62.7826   37.8065 H   0  0  0  0  0  0  0  0  0  0  0  0
  112.3219   71.1580   39.3107 H   0  0  0  0  0  0  0  0  0  0  0  0
  112.7380   70.2955   37.7910 H   0  0  0  0  0  0  0  0  0  0  0  0
  111.4445   71.5418   37.7910 H   0  0  0  0  0  0  0  0  0  0  0  0
  108.3659   66.3773   42.9403 H   0  0  0  0  0  0  0  0  0  0  0  0
  108.7012   69.6628   45.3880 H   0  0  0  0  0  0  0  0  0  0  0  0
  108.5550   67.3005   38.1215 H   0  0  0  0  0  0  0  0  0  0  0  0
  1  2  2  0
  1  3  1  0
  2  4  1  0
  3  7  2  0
  4  8  2  0
  5  9  2  0
  5 26  1  0
  6 25  1  0
  6 26  2  0
  7  8  1  0
  7 18  1  0
  8 28  1  0
  9 16  1  0
  9 25  1  0
 10 11  2  0
 10 18  1  0
 11 13  1  0
 11 32  1  0
 12 14  1  0
 12 16  2  0
 12 29  1  0
 13 29  1  0
 13 30  2  0
 14 27  1  0
 14 31  2  0
 15 17  2  3
 17 24  1  0
 18 19  1  0
 18 24  1  6
 19 27  1  1
 19 28  1  0
 19 29  1  0
 20 24  1  0
 21 24  1  0
 22 32  1  0
 23 33  1  0
 28 33  1  0
  1 34  1  0
  2 35  1  0
  3 36  1  0
  4 37  1  0
  5 38  1  0
  6 39  1  0
 10 40  1  0
 15 41  1  0
 15 42  1  0
 16 43  1  0
 17 44  1  0
 20 45  1  0
 20 46  1  0
 20 47  1  0
 21 48  1  0
 21 49  1  0
 21 50  1  0
 22 51  1  0
 22 52  1  0
 22 53  1  0
 23 54  1  0
 23 55  1  0
 23 56  1  0
 25 57  1  0
 26 58  1  0
 27 59  1  0
M  CHG  1  26   1
M  END
>  <Name>  (255) 
Zheng_6

>  <Comment>  (255) 
 Schrodinger Suite 2021-4.

>  <s_m_entry_id>  (255) 
1421

>  <class_value>  (255) 
0

>  <s_m_Source_Path>  (255) 
C:\Users\vinicius\Desktop

>  <s_m_Source_File>  (255) 
Ligands_Saureus_o.sdf

>  <i_m_Source_File_Index>  (255) 
235

>  <r_epik_Ionization_Penalty>  (255) 
1.7402

>  <r_epik_State_Penalty>  (255) 
1.6835

>  <i_epik_Tot_Q>  (255) 
1

>  <i_f3d_flags>  (255) 
0

>  <s_m_job_name>  (255) 
Saureus_o

>  <FRED Chemgauss4 score>  (255) 
-7.454237

>  <Set>  (255) 
test

>  <HBA count>  (255) 
5

>  <HBD count>  (255) 
2

>  <ExactMolWt>  (255) 
448.19793073209075

>  <NumRotatableBounds>  (255) 
9

>  <FractionCsp3>  (255) 
0.2916666666666667

>  <TPSA>  (255) 
101.04000000000002

>  <LogP_WildmanCrippen>  (255) 
1.8573999999999997

>  <General_Cluster>  (255) 
5

>  <Biological_Cluster>  (255) 
2

>  <Physicochemical_Cluster>  (255) 
4

>  <Structural_Cluster>  (255) 
3

$$$$
CHEMBL3676409
     RDKit          3D

 47 50  0  0  1  0  0  0  0  0999 V2000
  111.7079   72.8357   32.5302 C   0  0  0  0  0  0  0  0  0  0  0  0
  111.8716   71.4846   32.2460 C   0  0  0  0  0  0  0  0  0  0  0  0
  110.1224   66.4939   39.3521 C   0  0  0  0  0  0  0  0  0  0  0  0
  110.7790   73.1873   33.4963 C   0  0  0  0  0  0  0  0  0  0  0  0
  112.4035   66.1291   39.9046 C   0  0  0  0  0  0  0  0  0  0  0  0
  110.2101   70.9940   33.8754 C   0  0  0  0  0  0  0  0  0  0  0  0
  111.4001   66.1222   38.9520 C   0  0  0  0  0  0  0  0  0  0  0  0
  109.8835   66.8387   40.6832 C   0  0  0  0  0  0  0  0  0  0  0  0
  111.1122   70.5396   32.9270 C   0  0  0  0  0  0  0  0  0  0  0  0
  110.9590   66.8090   41.5703 C   0  0  0  0  0  0  0  0  0  0  0  0
  109.5047   67.3996   43.4734 C   0  0  0  0  0  0  0  0  0  0  0  0
  111.6767   65.7529   37.5758 C   0  0  0  0  0  0  0  0  0  0  0  0
  110.9173   66.0739   36.5018 C   0  0  0  0  0  0  0  0  0  0  0  0
  111.2355   65.6661   35.1190 C   0  0  0  0  0  0  0  0  0  0  0  0
  108.5445   67.3366   41.1362 C   0  0  0  0  0  0  0  0  0  0  0  0
  108.3207   67.0216   42.6068 C   0  0  0  0  0  0  0  0  0  0  0  0
  110.1875   67.1746   31.9351 C   0  0  0  0  0  0  0  0  0  0  0  0
  111.0750   66.2123   32.7111 C   0  0  0  0  0  0  0  0  0  0  0  0
  110.1053   67.7857   34.2536 C   0  0  0  0  0  0  0  0  0  0  0  0
  110.0997   68.3885   32.8537 C   0  0  1  0  0  0  0  0  0  0  0  0
  110.0232   72.2981   34.1787 N   0  0  0  0  0  0  0  0  0  0  0  0
  112.2164   66.4701   41.1992 N   0  0  0  0  0  0  0  0  0  0  0  0
  110.7469   67.1766   42.9129 N   0  0  0  0  0  0  0  0  0  0  0  0
  110.8203   66.5158   34.1115 N   0  0  0  0  0  0  0  0  0  0  0  0
  109.3512   67.7877   44.6314 O   0  0  0  0  0  0  0  0  0  0  0  0
  111.8389   64.6090   34.9374 O   0  0  0  0  0  0  0  0  0  0  0  0
  111.2526   69.2015   32.6681 O   0  0  0  0  0  0  0  0  0  0  0  0
  112.2973   73.6014   32.0046 H   0  0  0  0  0  0  0  0  0  0  0  0
  112.5990   71.1645   31.4854 H   0  0  0  0  0  0  0  0  0  0  0  0
  109.3008   66.5163   38.6211 H   0  0  0  0  0  0  0  0  0  0  0  0
  110.6485   74.2560   33.7220 H   0  0  0  0  0  0  0  0  0  0  0  0
  113.4165   65.8391   39.5888 H   0  0  0  0  0  0  0  0  0  0  0  0
  109.6088   70.2475   34.4149 H   0  0  0  0  0  0  0  0  0  0  0  0
  112.5839   65.1595   37.3888 H   0  0  0  0  0  0  0  0  0  0  0  0
  110.0104   66.6735   36.6693 H   0  0  0  0  0  0  0  0  0  0  0  0
  108.4961   68.4257   40.9892 H   0  0  0  0  0  0  0  0  0  0  0  0
  107.7636   66.8355   40.5454 H   0  0  0  0  0  0  0  0  0  0  0  0
  108.1387   65.9418   42.7115 H   0  0  0  0  0  0  0  0  0  0  0  0
  107.4585   67.6147   42.9458 H   0  0  0  0  0  0  0  0  0  0  0  0
  110.6447   67.4421   30.9711 H   0  0  0  0  0  0  0  0  0  0  0  0
  109.2035   66.7492   31.6884 H   0  0  0  0  0  0  0  0  0  0  0  0
  110.8057   65.1699   32.4857 H   0  0  0  0  0  0  0  0  0  0  0  0
  112.1373   66.3254   32.4491 H   0  0  0  0  0  0  0  0  0  0  0  0
  110.6287   68.4482   34.9586 H   0  0  0  0  0  0  0  0  0  0  0  0
  109.0886   67.6475   34.6501 H   0  0  0  0  0  0  0  0  0  0  0  0
  109.2167   69.0169   32.6657 H   0  0  0  0  0  0  0  0  0  0  0  0
  111.5736   67.2865   43.5174 H   0  0  0  0  0  0  0  0  0  0  0  0
  1  2  2  0
  1  4  1  0
  2  9  1  0
  3  7  2  0
  3  8  1  0
  4 21  2  0
  5  7  1  0
  5 22  2  0
  6  9  2  0
  6 21  1  0
  7 12  1  0
  8 10  2  0
  8 15  1  0
  9 27  1  0
 10 22  1  0
 10 23  1  0
 11 16  1  0
 11 23  1  0
 11 25  2  0
 12 13  2  0
 13 14  1  0
 14 24  1  0
 14 26  2  0
 15 16  1  0
 17 18  1  0
 17 20  1  0
 18 24  1  0
 19 20  1  0
 19 24  1  0
 20 27  1  0
  1 28  1  0
  2 29  1  0
  3 30  1  0
  4 31  1  0
  5 32  1  0
  6 33  1  0
 12 34  1  0
 13 35  1  0
 15 36  1  0
 15 37  1  0
 16 38  1  0
 16 39  1  0
 17 40  1  0
 17 41  1  0
 18 42  1  0
 18 43  1  0
 19 44  1  0
 19 45  1  0
 20 46  1  6
 23 47  1  0
M  END
>  <Name>  (256) 
CHEMBL3676409

>  <Comment>  (256) 
 Schrodinger Suite 2021-4.

>  <s_m_entry_id>  (256) 
1434

>  <s_m_Source_Path>  (256) 
C:\Users\vinicius\Desktop

>  <s_m_Source_File>  (256) 
Ligands_Saureus_failomega.smi

>  <i_m_Source_File_Index>  (256) 
6

>  <r_lp_tautomer_probability>  (256) 
1

>  <r_epik_Ionization_Penalty>  (256) 
0.0038

>  <r_epik_State_Penalty>  (256) 
0.0026

>  <i_epik_Tot_Q>  (256) 
0

>  <i_f3d_flags>  (256) 
0

>  <s_m_job_name>  (256) 
Saureus_fail

>  <class_value>  (256) 
1

>  <FRED Chemgauss4 score>  (256) 
-14.347589

>  <Set>  (256) 
test

>  <HBA count>  (256) 
5

>  <HBD count>  (256) 
1

>  <ExactMolWt>  (256) 
364.15354050000053

>  <NumRotatableBounds>  (256) 
4

>  <FractionCsp3>  (256) 
0.3

>  <TPSA>  (256) 
84.42

>  <LogP_WildmanCrippen>  (256) 
2.0544

>  <General_Cluster>  (256) 
1

>  <Biological_Cluster>  (256) 
1

>  <Physicochemical_Cluster>  (256) 
4

>  <Structural_Cluster>  (256) 
2

$$$$
FULL_S7
     RDKit          3D

 41 44  0  0  0  0  0  0  0  0999 V2000
  111.3309   71.8058   31.4456 C   0  0  0  0  0  0  0  0  0  0  0  0
  111.6813   72.7723   32.3858 C   0  0  0  0  0  0  0  0  0  0  0  0
  111.0076   70.5035   31.8433 C   0  0  0  0  0  0  0  0  0  0  0  0
  110.3855   66.6059   38.7901 C   0  0  0  0  0  0  0  0  0  0  0  0
  112.2080   65.0313   38.5994 C   0  0  0  0  0  0  0  0  0  0  0  0
  111.7202   72.4700   33.7498 C   0  0  0  0  0  0  0  0  0  0  0  0
  110.5313   66.6066   40.1773 C   0  0  0  0  0  0  0  0  0  0  0  0
  112.3537   65.0320   39.9866 C   0  0  0  0  0  0  0  0  0  0  0  0
  111.0386   70.1737   33.2132 C   0  0  0  0  0  0  0  0  0  0  0  0
  111.2239   65.8182   38.0011 C   0  0  0  0  0  0  0  0  0  0  0  0
  110.7795   68.9918   33.9590 C   0  0  0  0  0  0  0  0  0  0  0  0
  111.3951   71.1644   34.1352 C   0  0  0  0  0  0  0  0  0  0  0  0
  111.5154   65.8197   40.7756 C   0  0  0  0  0  0  0  0  0  0  0  0
  110.9857   69.2845   35.2906 C   0  0  0  0  0  0  0  0  0  0  0  0
  111.0705   65.8174   36.5383 C   0  0  0  0  0  0  0  0  0  0  0  0
  110.3735   67.6288   33.5212 C   0  0  0  0  0  0  0  0  0  0  0  0
  110.8272   68.3549   36.4392 C   0  0  0  0  0  0  0  0  0  0  0  0
  109.7637   66.8603   34.7062 C   0  0  0  0  0  0  0  0  0  0  0  0
  111.6565   71.2873   36.6263 C   0  0  0  0  0  0  0  0  0  0  0  0
  111.3527   70.5958   35.3910 N   0  0  0  0  0  0  0  0  0  0  0  0
  110.5955   66.9815   35.9229 N   0  0  0  0  0  0  0  0  0  0  0  0
  111.3700   64.7744   35.9587 O   0  0  0  0  0  0  0  0  0  0  0  0
  111.6577   65.8201   42.1291 O   0  0  0  0  0  0  0  0  0  0  0  0
  111.3081   72.0694   30.3779 H   0  0  0  0  0  0  0  0  0  0  0  0
  111.9313   73.7893   32.0494 H   0  0  0  0  0  0  0  0  0  0  0  0
  110.7323   69.7457   31.0950 H   0  0  0  0  0  0  0  0  0  0  0  0
  109.6094   67.2265   38.3183 H   0  0  0  0  0  0  0  0  0  0  0  0
  112.8692   64.4102   37.9772 H   0  0  0  0  0  0  0  0  0  0  0  0
  111.9966   73.2313   34.4941 H   0  0  0  0  0  0  0  0  0  0  0  0
  109.8702   67.2277   40.7995 H   0  0  0  0  0  0  0  0  0  0  0  0
  113.1297   64.4114   40.4584 H   0  0  0  0  0  0  0  0  0  0  0  0
  109.6278   67.7108   32.7167 H   0  0  0  0  0  0  0  0  0  0  0  0
  111.2576   67.0872   33.1537 H   0  0  0  0  0  0  0  0  0  0  0  0
  111.7398   68.3688   37.0532 H   0  0  0  0  0  0  0  0  0  0  0  0
  109.9719   68.6689   37.0555 H   0  0  0  0  0  0  0  0  0  0  0  0
  108.7629   67.2654   34.9167 H   0  0  0  0  0  0  0  0  0  0  0  0
  109.7087   65.7962   34.4330 H   0  0  0  0  0  0  0  0  0  0  0  0
  111.3775   70.6523   37.4801 H   0  0  0  0  0  0  0  0  0  0  0  0
  112.7337   71.5062   36.6686 H   0  0  0  0  0  0  0  0  0  0  0  0
  111.0891   72.2287   36.6686 H   0  0  0  0  0  0  0  0  0  0  0  0
  112.3562   65.2615   42.5536 H   0  0  0  0  0  0  0  0  0  0  0  0
  1  2  2  0
  1  3  1  0
  2  6  1  0
  3  9  2  0
  4  7  2  0
  4 10  1  0
  5  8  1  0
  5 10  2  0
  6 12  2  0
  7 13  1  0
  8 13  2  0
  9 11  1  0
  9 12  1  0
 10 15  1  0
 11 14  2  0
 11 16  1  0
 12 20  1  0
 13 23  1  0
 14 17  1  0
 14 20  1  0
 15 21  1  0
 15 22  2  0
 16 18  1  0
 17 21  1  0
 18 21  1  0
 19 20  1  0
  1 24  1  0
  2 25  1  0
  3 26  1  0
  4 27  1  0
  5 28  1  0
  6 29  1  0
  7 30  1  0
  8 31  1  0
 16 32  1  0
 16 33  1  0
 17 34  1  0
 17 35  1  0
 18 36  1  0
 18 37  1  0
 19 38  1  0
 19 39  1  0
 19 40  1  0
 23 41  1  0
M  END
>  <Name>  (257) 
FULL_S7

>  <Comment>  (257) 
 Schrodinger Suite 2021-4.

>  <s_m_entry_id>  (257) 
1369

>  <class_value>  (257) 
0

>  <s_m_Source_Path>  (257) 
C:\Users\vinicius\Desktop

>  <s_m_Source_File>  (257) 
Ligands_Saureus_o.sdf

>  <i_m_Source_File_Index>  (257) 
219

>  <r_lp_tautomer_probability>  (257) 
0.999999999997365

>  <r_epik_Ionization_Penalty>  (257) 
0.0145

>  <r_epik_State_Penalty>  (257) 
0.0114

>  <i_epik_Tot_Q>  (257) 
0

>  <i_f3d_flags>  (257) 
0

>  <s_m_job_name>  (257) 
Saureus_o

>  <FRED Chemgauss4 score>  (257) 
-15.748832

>  <Set>  (257) 
test

>  <HBA count>  (257) 
3

>  <HBD count>  (257) 
1

>  <ExactMolWt>  (257) 
306.13682781600045

>  <NumRotatableBounds>  (257) 
3

>  <FractionCsp3>  (257) 
0.21052631578947367

>  <TPSA>  (257) 
45.47

>  <LogP_WildmanCrippen>  (257) 
3.082400000000002

>  <General_Cluster>  (257) 
2

>  <Biological_Cluster>  (257) 
2

>  <Physicochemical_Cluster>  (257) 
2

>  <Structural_Cluster>  (257) 
3

$$$$
CHEMBL3322724
     RDKit          3D

 49 52  0  0  0  0  0  0  0  0999 V2000
  110.3506   69.8644   32.1283 C   0  0  0  0  0  0  0  0  0  0  0  0
  110.0909   68.5174   31.8632 C   0  0  0  0  0  0  0  0  0  0  0  0
  110.6903   70.2950   33.4182 C   0  0  0  0  0  0  0  0  0  0  0  0
  107.8206   64.4804   42.6506 C   0  0  0  0  0  0  0  0  0  0  0  0
  110.1606   67.5530   32.8730 C   0  0  0  0  0  0  0  0  0  0  0  0
  106.7054   64.1852   43.4269 C   0  0  0  0  0  0  0  0  0  0  0  0
  108.7604   62.3944   43.3002 C   0  0  0  0  0  0  0  0  0  0  0  0
  110.7665   69.3421   34.4490 C   0  0  0  0  0  0  0  0  0  0  0  0
  108.8720   63.5732   42.5807 C   0  0  0  0  0  0  0  0  0  0  0  0
  111.0663   69.3681   35.8366 C   0  0  0  0  0  0  0  0  0  0  0  0
  110.5008   68.0109   34.1446 C   0  0  0  0  0  0  0  0  0  0  0  0
  110.9652   68.0696   36.2796 C   0  0  0  0  0  0  0  0  0  0  0  0
  106.6907   62.9788   44.1083 C   0  0  0  0  0  0  0  0  0  0  0  0
  110.0672   63.8567   41.7673 C   0  0  0  0  0  0  0  0  0  0  0  0
  110.1229   64.7451   40.7638 C   0  0  0  0  0  0  0  0  0  0  0  0
  111.3418   64.9873   39.9709 C   0  0  0  0  0  0  0  0  0  0  0  0
  105.3189   61.5499   45.6577 C   0  0  0  0  0  0  0  0  0  0  0  0
  112.1897   66.4146   38.0281 C   0  0  0  0  0  0  0  0  0  0  0  0
  110.1276   66.7237   38.4672 C   0  0  0  0  0  0  0  0  0  0  0  0
  111.2100   67.5851   37.7697 C   0  0  0  0  0  0  0  0  0  0  0  0
  111.4159   70.5553   36.6408 C   0  0  0  0  0  0  0  0  0  0  0  0
  103.9829   61.6256   46.3534 C   0  0  0  0  0  0  0  0  0  0  0  0
  107.6930   62.0727   44.0649 N   0  0  0  0  0  0  0  0  0  0  0  0
  111.2193   65.9263   38.9887 N   0  0  0  0  0  0  0  0  0  0  0  0
  105.5634   62.6907   44.8870 N   0  0  0  0  0  0  0  0  0  0  0  0
  112.3681   64.3590   40.2175 O   0  0  0  0  0  0  0  0  0  0  0  0
  106.0482   60.5742   45.8027 O   0  0  0  0  0  0  0  0  0  0  0  0
  110.6225   67.2387   35.2609 O   0  0  0  0  0  0  0  0  0  0  0  0
  110.2875   70.5987   31.3117 H   0  0  0  0  0  0  0  0  0  0  0  0
  109.8266   68.2099   30.8407 H   0  0  0  0  0  0  0  0  0  0  0  0
  110.8932   71.3572   33.6199 H   0  0  0  0  0  0  0  0  0  0  0  0
  107.8708   65.4279   42.0940 H   0  0  0  0  0  0  0  0  0  0  0  0
  109.9579   66.4902   32.6746 H   0  0  0  0  0  0  0  0  0  0  0  0
  105.8615   64.8872   43.4978 H   0  0  0  0  0  0  0  0  0  0  0  0
  109.5916   61.6760   43.2459 H   0  0  0  0  0  0  0  0  0  0  0  0
  110.9847   63.2967   42.0009 H   0  0  0  0  0  0  0  0  0  0  0  0
  109.2168   65.3197   40.5213 H   0  0  0  0  0  0  0  0  0  0  0  0
  112.3580   65.7539   37.1649 H   0  0  0  0  0  0  0  0  0  0  0  0
  113.2442   66.5810   38.2935 H   0  0  0  0  0  0  0  0  0  0  0  0
  109.5366   67.2526   39.2294 H   0  0  0  0  0  0  0  0  0  0  0  0
  109.2881   66.2772   37.9142 H   0  0  0  0  0  0  0  0  0  0  0  0
  111.4343   68.6106   38.0982 H   0  0  0  0  0  0  0  0  0  0  0  0
  111.3431   70.3082   37.7102 H   0  0  0  0  0  0  0  0  0  0  0  0
  112.4441   70.8676   36.4058 H   0  0  0  0  0  0  0  0  0  0  0  0
  110.7210   71.3750   36.4058 H   0  0  0  0  0  0  0  0  0  0  0  0
  104.1357   61.6169   47.4427 H   0  0  0  0  0  0  0  0  0  0  0  0
  103.4701   62.5542   46.0625 H   0  0  0  0  0  0  0  0  0  0  0  0
  103.3685   60.7608   46.0625 H   0  0  0  0  0  0  0  0  0  0  0  0
  104.8233   63.4070   44.8929 H   0  0  0  0  0  0  0  0  0  0  0  0
  1  2  2  0
  1  3  1  0
  2  5  1  0
  3  8  2  0
  4  6  2  0
  4  9  1  0
  5 11  2  0
  6 13  1  0
  7  9  2  0
  7 23  1  0
  8 10  1  0
  8 11  1  0
  9 14  1  0
 10 12  2  0
 10 21  1  0
 11 28  1  0
 12 20  1  0
 12 28  1  0
 13 23  2  0
 13 25  1  0
 14 15  2  0
 15 16  1  0
 16 24  1  0
 16 26  2  0
 17 22  1  0
 17 25  1  0
 17 27  2  0
 18 20  1  0
 18 24  1  0
 19 20  1  0
 19 24  1  0
  1 29  1  0
  2 30  1  0
  3 31  1  0
  4 32  1  0
  5 33  1  0
  6 34  1  0
  7 35  1  0
 14 36  1  0
 15 37  1  0
 18 38  1  0
 18 39  1  0
 19 40  1  0
 19 41  1  0
 20 42  1  0
 21 43  1  0
 21 44  1  0
 21 45  1  0
 22 46  1  0
 22 47  1  0
 22 48  1  0
 25 49  1  0
M  END
>  <Name>  (258) 
CHEMBL3322724

>  <Comment>  (258) 
 Schrodinger Suite 2021-4.

>  <s_m_entry_id>  (258) 
1130

>  <class_value>  (258) 
1

>  <s_m_Source_Path>  (258) 
C:\Users\vinicius\Desktop

>  <s_m_Source_File>  (258) 
Ligands_Saureus_o.sdf

>  <i_m_Source_File_Index>  (258) 
45

>  <r_lp_tautomer_probability>  (258) 
1

>  <r_epik_Ionization_Penalty>  (258) 
0.0002

>  <r_epik_State_Penalty>  (258) 
0

>  <i_epik_Tot_Q>  (258) 
0

>  <i_f3d_flags>  (258) 
0

>  <s_m_job_name>  (258) 
Saureus_o

>  <FRED Chemgauss4 score>  (258) 
-13.227004

>  <Set>  (258) 
test

>  <HBA count>  (258) 
4

>  <HBD count>  (258) 
1

>  <ExactMolWt>  (258) 
375.1582915320006

>  <NumRotatableBounds>  (258) 
6

>  <FractionCsp3>  (258) 
0.22727272727272727

>  <TPSA>  (258) 
75.44

>  <LogP_WildmanCrippen>  (258) 
3.7338200000000032

>  <General_Cluster>  (258) 
1

>  <Biological_Cluster>  (258) 
1

>  <Physicochemical_Cluster>  (258) 
1

>  <Structural_Cluster>  (258) 
2

$$$$
CHEMBL849
     RDKit          3D

 23 24  0  0  0  0  0  0  0  0999 V2000
  109.9662   67.0220   37.6085 C   0  0  0  0  0  0  0  0  0  0  0  0
  110.8781   67.2091   33.4490 C   0  0  0  0  0  0  0  0  0  0  0  0
  110.7014   66.9707   38.7927 C   0  0  0  0  0  0  0  0  0  0  0  0
  111.1826   68.2236   32.5415 C   0  0  0  0  0  0  0  0  0  0  0  0
  112.3294   65.5437   37.7203 C   0  0  0  0  0  0  0  0  0  0  0  0
  109.6132   69.6874   33.6511 C   0  0  0  0  0  0  0  0  0  0  0  0
  111.5942   65.5949   36.5360 C   0  0  0  0  0  0  0  0  0  0  0  0
  110.4126   66.3340   36.4801 C   0  0  0  0  0  0  0  0  0  0  0  0
  109.9411   67.4337   34.4576 C   0  0  0  0  0  0  0  0  0  0  0  0
  111.8830   66.2316   38.8486 C   0  0  0  0  0  0  0  0  0  0  0  0
  110.5502   69.4628   32.6425 C   0  0  0  0  0  0  0  0  0  0  0  0
  109.3087   68.6729   34.5587 C   0  0  0  0  0  0  0  0  0  0  0  0
  112.0193   64.9561   35.5079 O   0  0  0  0  0  1  0  0  0  0  0  0
  109.6588   66.4104   35.3431 O   0  0  0  0  0  0  0  0  0  0  0  0
  112.7883   66.1690   40.3112 Cl  0  0  0  0  0  0  0  0  0  0  0  0
  110.9267   70.7135   31.5219 Cl  0  0  0  0  0  0  0  0  0  0  0  0
  108.1458   68.9773   35.7959 Cl  0  0  0  0  0  0  0  0  0  0  0  0
  109.0344   67.6050   37.5644 H   0  0  0  0  0  0  0  0  0  0  0  0
  111.3769   66.2319   33.3693 H   0  0  0  0  0  0  0  0  0  0  0  0
  110.3494   67.5131   39.6826 H   0  0  0  0  0  0  0  0  0  0  0  0
  111.9215   68.0464   31.7461 H   0  0  0  0  0  0  0  0  0  0  0  0
  113.2612   64.9608   37.7644 H   0  0  0  0  0  0  0  0  0  0  0  0
  109.1144   70.6646   33.7307 H   0  0  0  0  0  0  0  0  0  0  0  0
  1  3  2  0
  1  8  1  0
  2  4  2  0
  2  9  1  0
  3 10  1  0
  4 11  1  0
  5  7  1  0
  5 10  2  0
  6 11  2  0
  6 12  1  0
  7  8  2  0
  7 13  1  0
  8 14  1  0
  9 12  2  0
  9 14  1  0
 10 15  1  0
 11 16  1  0
 12 17  1  0
  1 18  1  0
  2 19  1  0
  3 20  1  0
  4 21  1  0
  5 22  1  0
  6 23  1  0
M  CHG  1  13  -1
M  END
>  <Name>  (259) 
CHEMBL849

>  <Comment>  (259) 
 Schrodinger Suite 2021-4.

>  <s_m_entry_id>  (259) 
1165

>  <class_value>  (259) 
1

>  <s_m_Source_Path>  (259) 
C:\Users\vinicius\Desktop

>  <s_m_Source_File>  (259) 
Ligands_Saureus_o.sdf

>  <i_m_Source_File_Index>  (259) 
72

>  <r_lp_tautomer_probability>  (259) 
1

>  <r_epik_Ionization_Penalty>  (259) 
0.2989

>  <r_epik_State_Penalty>  (259) 
0.2924

>  <i_epik_Tot_Q>  (259) 
-1

>  <i_f3d_flags>  (259) 
0

>  <s_m_job_name>  (259) 
Saureus_o

>  <FRED Chemgauss4 score>  (259) 
-11.176988

>  <Set>  (259) 
test

>  <HBA count>  (259) 
2

>  <HBD count>  (259) 
0

>  <ExactMolWt>  (259) 
286.94388605191017

>  <NumRotatableBounds>  (259) 
2

>  <FractionCsp3>  (259) 
0.0

>  <TPSA>  (259) 
32.29

>  <LogP_WildmanCrippen>  (259) 
4.5127000000000015

>  <General_Cluster>  (259) 
4

>  <Biological_Cluster>  (259) 
1

>  <Physicochemical_Cluster>  (259) 
3

>  <Structural_Cluster>  (259) 
1

$$$$
CHEMBL1682260
     RDKit          3D

 54 58  0  0  1  0  0  0  0  0999 V2000
  110.9191   69.6078   34.8474 C   0  0  0  0  0  0  0  0  0  0  0  0
  107.1625   64.4119   41.9663 C   0  0  0  0  0  0  0  0  0  0  0  0
  111.3853   70.0513   33.6099 C   0  0  0  0  0  0  0  0  0  0  0  0
  106.3384   63.2979   42.1260 C   0  0  0  0  0  0  0  0  0  0  0  0
  111.5354   71.7235   35.8379 C   0  0  0  0  0  0  0  0  0  0  0  0
  108.4520   63.7344   43.8938 C   0  0  0  0  0  0  0  0  0  0  0  0
  110.9941   70.4439   35.9614 C   0  0  0  0  0  0  0  0  0  0  0  0
  108.2193   64.6301   42.8502 C   0  0  0  0  0  0  0  0  0  0  0  0
  111.9266   71.3309   33.4863 C   0  0  0  0  0  0  0  0  0  0  0  0
  106.5711   62.4022   43.1696 C   0  0  0  0  0  0  0  0  0  0  0  0
  112.0016   72.1670   34.6004 C   0  0  0  0  0  0  0  0  0  0  0  0
  107.6279   62.6204   44.0535 C   0  0  0  0  0  0  0  0  0  0  0  0
  110.1328   67.1187   39.4812 C   0  0  0  0  0  0  0  0  0  0  0  0
  109.0120   69.6024   46.0781 C   0  0  0  0  0  0  0  0  0  0  0  0
  109.8604   68.4129   44.1558 C   0  0  0  0  0  0  0  0  0  0  0  0
  108.7497   67.7172   41.3689 C   0  0  0  0  0  0  0  0  0  0  0  0
  109.5587   66.8631   40.7597 C   0  0  0  0  0  0  0  0  0  0  0  0
  110.0478   69.2374   45.3171 C   0  0  0  0  0  0  0  0  0  0  0  0
  109.8219   68.2827   38.8924 C   0  0  0  0  0  0  0  0  0  0  0  0
  108.6234   68.0095   43.8387 C   0  0  0  0  0  0  0  0  0  0  0  0
  107.6450   69.1613   45.7356 C   0  0  0  0  0  0  0  0  0  0  0  0
  108.3814   68.9875   40.7383 C   0  0  0  0  0  0  0  0  0  0  0  0
  110.4991   69.9761   37.2678 C   0  0  0  0  0  0  0  0  0  0  0  0
  110.3158   68.6906   37.6093 C   0  0  0  0  0  0  0  0  0  0  0  0
  109.1033   65.8214   42.6777 C   0  0  2  0  0  0  0  0  0  0  0  0
  108.2953   67.1507   42.6572 C   0  0  2  0  0  0  0  0  0  0  0  0
  106.6885   69.4912   46.4288 O   0  0  0  0  0  0  0  0  0  0  0  0
  107.6108   69.7793   41.2673 O   0  0  0  0  0  0  0  0  0  0  0  0
  109.8062   65.6716   41.4101 O   0  0  0  0  0  0  0  0  0  0  0  0
  108.9511   69.2268   39.5086 O   0  0  0  0  0  0  0  0  0  0  0  0
  107.5017   68.3774   44.6221 O   0  0  0  0  0  0  0  0  0  0  0  0
  112.3784   71.7520   32.2722 O   0  0  0  0  0  0  0  0  0  0  0  0
  105.7589   61.3180   43.3148 O   0  0  0  0  0  0  0  0  0  0  0  0
  112.5292   73.4183   34.4915 O   0  0  0  0  0  0  0  0  0  0  0  0
  107.8645   61.7530   45.0770 O   0  0  0  0  0  0  0  0  0  0  0  0
  111.3326   69.6361   45.6144 O   0  0  0  0  0  0  0  0  0  0  0  0
  110.4923   68.5987   34.9449 H   0  0  0  0  0  0  0  0  0  0  0  0
  106.9790   65.1183   41.1433 H   0  0  0  0  0  0  0  0  0  0  0  0
  111.3261   69.3920   32.7314 H   0  0  0  0  0  0  0  0  0  0  0  0
  105.5050   63.1258   41.4290 H   0  0  0  0  0  0  0  0  0  0  0  0
  111.5946   72.3828   36.7164 H   0  0  0  0  0  0  0  0  0  0  0  0
  109.2854   63.9065   44.5908 H   0  0  0  0  0  0  0  0  0  0  0  0
  110.8025   66.3923   38.9977 H   0  0  0  0  0  0  0  0  0  0  0  0
  109.1782   70.2340   46.9632 H   0  0  0  0  0  0  0  0  0  0  0  0
  110.7200   68.1173   43.5363 H   0  0  0  0  0  0  0  0  0  0  0  0
  110.2610   70.7400   38.0227 H   0  0  0  0  0  0  0  0  0  0  0  0
  110.5560   67.9129   36.8693 H   0  0  0  0  0  0  0  0  0  0  0  0
  109.7997   65.8724   43.5277 H   0  0  0  0  0  0  0  0  0  0  0  0
  107.2029   67.0439   42.7290 H   0  0  0  0  0  0  0  0  0  0  0  0
  112.7642   72.6585   32.1748 H   0  0  0  0  0  0  0  0  0  0  0  0
  105.9163   60.6768   44.0525 H   0  0  0  0  0  0  0  0  0  0  0  0
  112.8623   73.7406   33.6167 H   0  0  0  0  0  0  0  0  0  0  0  0
  107.2845   60.9598   45.1977 H   0  0  0  0  0  0  0  0  0  0  0  0
  112.0849   69.3535   45.0362 H   0  0  0  0  0  0  0  0  0  0  0  0
  1  3  2  0
  1  7  1  0
  2  4  2  0
  2  8  1  0
  3  9  1  0
  4 10  1  0
  5  7  2  0
  5 11  1  0
  6  8  2  0
  6 12  1  0
  7 23  1  0
  8 25  1  0
  9 11  2  0
  9 32  1  0
 10 12  2  0
 10 33  1  0
 11 34  1  0
 12 35  1  0
 13 17  1  0
 13 19  2  0
 14 18  2  0
 14 21  1  0
 15 18  1  0
 15 20  2  0
 16 17  2  0
 16 22  1  0
 16 26  1  0
 17 29  1  0
 18 36  1  0
 19 24  1  0
 19 30  1  0
 20 26  1  0
 20 31  1  0
 21 27  2  0
 21 31  1  0
 22 28  2  0
 22 30  1  0
 23 24  2  0
 25 26  1  0
 25 29  1  0
  1 37  1  0
  2 38  1  0
  3 39  1  0
  4 40  1  0
  5 41  1  0
  6 42  1  0
 13 43  1  0
 14 44  1  0
 15 45  1  0
 23 46  1  0
 24 47  1  0
 25 48  1  1
 26 49  1  6
 32 50  1  0
 33 51  1  0
 34 52  1  0
 35 53  1  0
 36 54  1  0
M  END
>  <Name>  (260) 
CHEMBL1682260

>  <Comment>  (260) 
 Schrodinger Suite 2021-4.

>  <s_m_entry_id>  (260) 
1285

>  <class_value>  (260) 
0

>  <s_m_Source_Path>  (260) 
C:\Users\vinicius\Desktop

>  <s_m_Source_File>  (260) 
Ligands_Saureus_o.sdf

>  <i_m_Source_File_Index>  (260) 
168

>  <r_lp_tautomer_probability>  (260) 
0.999999499999776

>  <r_epik_Ionization_Penalty>  (260) 
0.9379

>  <r_epik_State_Penalty>  (260) 
0.9765

>  <i_epik_Tot_Q>  (260) 
0

>  <i_f3d_flags>  (260) 
0

>  <s_m_job_name>  (260) 
Saureus_o

>  <FRED Chemgauss4 score>  (260) 
-9.037760

>  <Set>  (260) 
test

>  <HBA count>  (260) 
10

>  <HBD count>  (260) 
5

>  <ExactMolWt>  (260) 
490.08999677600025

>  <NumRotatableBounds>  (260) 
9

>  <FractionCsp3>  (260) 
0.07692307692307693

>  <TPSA>  (260) 
170.79999999999998

>  <LogP_WildmanCrippen>  (260) 
3.557000000000005

>  <General_Cluster>  (260) 
2

>  <Biological_Cluster>  (260) 
2

>  <Physicochemical_Cluster>  (260) 
5

>  <Structural_Cluster>  (260) 
5

$$$$
FULL_S34
     RDKit          3D

 52 56  0  0  0  0  0  0  0  0999 V2000
  111.3079   65.7137   33.0930 C   0  0  0  0  0  0  0  0  0  0  0  0
  110.6583   66.9303   32.8952 C   0  0  0  0  0  0  0  0  0  0  0  0
  111.6176   65.2685   34.3831 C   0  0  0  0  0  0  0  0  0  0  0  0
  111.6413   70.7520   36.4786 C   0  0  0  0  0  0  0  0  0  0  0  0
  109.9145   70.7661   34.7889 C   0  0  0  0  0  0  0  0  0  0  0  0
  110.2978   67.7390   33.9766 C   0  0  0  0  0  0  0  0  0  0  0  0
  112.3070   71.7772   35.8069 C   0  0  0  0  0  0  0  0  0  0  0  0
  110.5802   71.7915   34.1172 C   0  0  0  0  0  0  0  0  0  0  0  0
  109.8887   67.9443   41.8219 C   0  0  0  0  0  0  0  0  0  0  0  0
  108.4121   66.0323   41.7999 C   0  0  0  0  0  0  0  0  0  0  0  0
  111.2653   66.0662   35.4903 C   0  0  0  0  0  0  0  0  0  0  0  0
  109.6572   66.6002   41.5299 C   0  0  0  0  0  0  0  0  0  0  0  0
  111.4158   65.9380   36.8979 C   0  0  0  0  0  0  0  0  0  0  0  0
  110.4451   70.2463   35.9696 C   0  0  0  0  0  0  0  0  0  0  0  0
  110.6126   67.2829   35.2619 C   0  0  0  0  0  0  0  0  0  0  0  0
  111.7765   72.2970   34.6262 C   0  0  0  0  0  0  0  0  0  0  0  0
  107.6301   68.1528   42.6539 C   0  0  0  0  0  0  0  0  0  0  0  0
  108.8752   68.7206   42.3839 C   0  0  0  0  0  0  0  0  0  0  0  0
  107.3985   66.8086   42.3619 C   0  0  0  0  0  0  0  0  0  0  0  0
  110.8575   67.0557   37.4812 C   0  0  0  0  0  0  0  0  0  0  0  0
  110.7264   65.7817   40.9382 C   0  0  0  0  0  0  0  0  0  0  0  0
  112.0214   64.8571   37.7218 C   0  0  0  0  0  0  0  0  0  0  0  0
  110.7903   67.3593   38.9344 C   0  0  0  0  0  0  0  0  0  0  0  0
  112.3682   65.3983   39.1194 C   0  0  0  0  0  0  0  0  0  0  0  0
  109.7264   69.1406   36.6944 C   0  0  0  0  0  0  0  0  0  0  0  0
  110.3784   67.8641   36.4905 N   0  0  0  0  0  0  0  0  0  0  0  0
  111.2496   66.1721   39.6998 N   0  0  0  0  0  0  0  0  0  0  0  0
  111.0894   64.8040   41.5909 O   0  0  0  0  0  0  0  0  0  0  0  0
  112.4256   73.2984   33.9716 O   0  0  0  0  0  0  0  0  0  0  0  0
  106.6378   68.9128   43.2035 O   0  0  0  0  0  0  0  0  0  0  0  0
  109.1926   70.3808   42.7327 Cl  0  0  0  0  0  0  0  0  0  0  0  0
  105.8686   66.0775   42.6821 Cl  0  0  0  0  0  0  0  0  0  0  0  0
  111.5806   65.0958   32.2248 H   0  0  0  0  0  0  0  0  0  0  0  0
  110.4255   67.2595   31.8718 H   0  0  0  0  0  0  0  0  0  0  0  0
  112.1303   64.3066   34.5313 H   0  0  0  0  0  0  0  0  0  0  0  0
  112.0596   70.3422   37.4098 H   0  0  0  0  0  0  0  0  0  0  0  0
  108.9711   70.3674   34.3875 H   0  0  0  0  0  0  0  0  0  0  0  0
  109.7848   68.6999   33.8230 H   0  0  0  0  0  0  0  0  0  0  0  0
  113.2504   72.1758   36.2083 H   0  0  0  0  0  0  0  0  0  0  0  0
  110.1618   72.2015   33.1861 H   0  0  0  0  0  0  0  0  0  0  0  0
  110.8706   68.3922   41.6090 H   0  0  0  0  0  0  0  0  0  0  0  0
  108.2295   64.9723   41.5696 H   0  0  0  0  0  0  0  0  0  0  0  0
  111.3056   64.0275   37.8189 H   0  0  0  0  0  0  0  0  0  0  0  0
  112.9397   64.4995   37.2330 H   0  0  0  0  0  0  0  0  0  0  0  0
  111.4391   68.2180   39.1619 H   0  0  0  0  0  0  0  0  0  0  0  0
  109.7551   67.6037   39.2148 H   0  0  0  0  0  0  0  0  0  0  0  0
  112.5977   64.5513   39.7827 H   0  0  0  0  0  0  0  0  0  0  0  0
  113.2346   66.0690   39.0219 H   0  0  0  0  0  0  0  0  0  0  0  0
  109.7130   69.3677   37.7706 H   0  0  0  0  0  0  0  0  0  0  0  0
  108.7030   69.0740   36.2967 H   0  0  0  0  0  0  0  0  0  0  0  0
  112.0492   73.6674   33.1336 H   0  0  0  0  0  0  0  0  0  0  0  0
  105.7541   68.5097   43.3951 H   0  0  0  0  0  0  0  0  0  0  0  0
  1  2  2  0
  1  3  1  0
  2  6  1  0
  3 11  2  0
  4  7  2  0
  4 14  1  0
  5  8  1  0
  5 14  2  0
  6 15  2  0
  7 16  1  0
  8 16  2  0
  9 12  2  0
  9 18  1  0
 10 12  1  0
 10 19  2  0
 11 13  1  0
 11 15  1  0
 12 21  1  0
 13 20  2  0
 13 22  1  0
 14 25  1  0
 15 26  1  0
 16 29  1  0
 17 18  2  0
 17 19  1  0
 17 30  1  0
 18 31  1  0
 19 32  1  0
 20 23  1  0
 20 26  1  0
 21 27  1  0
 21 28  2  0
 22 24  1  0
 23 27  1  0
 24 27  1  0
 25 26  1  0
  1 33  1  0
  2 34  1  0
  3 35  1  0
  4 36  1  0
  5 37  1  0
  6 38  1  0
  7 39  1  0
  8 40  1  0
  9 41  1  0
 10 42  1  0
 22 43  1  0
 22 44  1  0
 23 45  1  0
 23 46  1  0
 24 47  1  0
 24 48  1  0
 25 49  1  0
 25 50  1  0
 29 51  1  0
 30 52  1  0
M  END
>  <Name>  (261) 
FULL_S34

>  <Comment>  (261) 
 Schrodinger Suite 2021-4.

>  <s_m_entry_id>  (261) 
1378

>  <class_value>  (261) 
0

>  <s_m_Source_Path>  (261) 
C:\Users\vinicius\Desktop

>  <s_m_Source_File>  (261) 
Ligands_Saureus_o.sdf

>  <i_m_Source_File_Index>  (261) 
223

>  <r_lp_tautomer_probability>  (261) 
0.99999999999473

>  <r_epik_Ionization_Penalty>  (261) 
1.7039

>  <r_epik_State_Penalty>  (261) 
1.809

>  <i_epik_Tot_Q>  (261) 
0

>  <i_f3d_flags>  (261) 
0

>  <s_m_job_name>  (261) 
Saureus_o

>  <FRED Chemgauss4 score>  (261) 
-11.370198

>  <Set>  (261) 
test

>  <HBA count>  (261) 
4

>  <HBD count>  (261) 
2

>  <ExactMolWt>  (261) 
466.08509786000053

>  <NumRotatableBounds>  (261) 
5

>  <FractionCsp3>  (261) 
0.16

>  <TPSA>  (261) 
65.7

>  <LogP_WildmanCrippen>  (261) 
5.606100000000004

>  <General_Cluster>  (261) 
3

>  <Biological_Cluster>  (261) 
2

>  <Physicochemical_Cluster>  (261) 
1

>  <Structural_Cluster>  (261) 
4

$$$$
CHEMBL3623410
     RDKit          3D

 36 38  0  0  0  0  0  0  0  0999 V2000
  110.2501   69.3018   31.7777 C   0  0  0  0  0  0  0  0  0  0  0  0
  110.0499   67.9603   32.1029 C   0  0  0  0  0  0  0  0  0  0  0  0
  110.5166   70.2310   32.7834 C   0  0  0  0  0  0  0  0  0  0  0  0
  108.8962   62.5768   42.7052 C   0  0  0  0  0  0  0  0  0  0  0  0
  110.1160   67.5479   33.4337 C   0  0  0  0  0  0  0  0  0  0  0  0
  110.5827   69.8186   34.1142 C   0  0  0  0  0  0  0  0  0  0  0  0
  109.8668   63.4709   42.2537 C   0  0  0  0  0  0  0  0  0  0  0  0
  107.6357   63.0447   43.0766 C   0  0  0  0  0  0  0  0  0  0  0  0
  110.3825   68.4770   34.4394 C   0  0  0  0  0  0  0  0  0  0  0  0
  109.5771   64.8330   42.1737 C   0  0  0  0  0  0  0  0  0  0  0  0
  107.3460   64.4068   42.9967 C   0  0  0  0  0  0  0  0  0  0  0  0
  108.3167   65.3010   42.5452 C   0  0  0  0  0  0  0  0  0  0  0  0
  111.4394   65.3650   38.0590 C   0  0  0  0  0  0  0  0  0  0  0  0
  109.9271   66.9189   39.7964 C   0  0  0  0  0  0  0  0  0  0  0  0
  110.6031   65.9181   40.3734 C   0  0  0  0  0  0  0  0  0  0  0  0
  110.7086   66.4015   37.6365 C   0  0  0  0  0  0  0  0  0  0  0  0
  111.4329   65.0468   39.5061 C   0  0  0  0  0  0  0  0  0  0  0  0
  110.4523   68.0420   35.8453 C   0  0  0  0  0  0  0  0  0  0  0  0
  110.6575   66.7808   36.2500 C   0  0  0  0  0  0  0  0  0  0  0  0
  112.0819   64.1099   39.9561 O   0  0  0  0  0  0  0  0  0  0  0  0
  109.9412   67.2059   38.4519 O   0  0  0  0  0  0  0  0  0  0  0  0
  110.5522   65.6820   41.7260 O   0  0  0  0  0  0  0  0  0  0  0  0
  105.7646   64.9195   43.4736 Cl  0  0  0  0  0  0  0  0  0  0  0  0
  107.9895   67.0001   42.4333 Cl  0  0  0  0  0  0  0  0  0  0  0  0
  110.1978   69.6270   30.7282 H   0  0  0  0  0  0  0  0  0  0  0  0
  109.8399   67.2276   31.3098 H   0  0  0  0  0  0  0  0  0  0  0  0
  110.6746   71.2889   32.5269 H   0  0  0  0  0  0  0  0  0  0  0  0
  109.1247   61.5027   42.7684 H   0  0  0  0  0  0  0  0  0  0  0  0
  109.9580   66.4899   33.6901 H   0  0  0  0  0  0  0  0  0  0  0  0
  110.7927   70.5513   34.9073 H   0  0  0  0  0  0  0  0  0  0  0  0
  110.8608   63.1019   41.9607 H   0  0  0  0  0  0  0  0  0  0  0  0
  106.8702   62.3395   43.4325 H   0  0  0  0  0  0  0  0  0  0  0  0
  112.0298   64.7644   37.3513 H   0  0  0  0  0  0  0  0  0  0  0  0
  109.3141   67.5601   40.4469 H   0  0  0  0  0  0  0  0  0  0  0  0
  110.3264   68.8108   36.6219 H   0  0  0  0  0  0  0  0  0  0  0  0
  110.7930   66.0002   35.4869 H   0  0  0  0  0  0  0  0  0  0  0  0
  1  2  2  0
  1  3  1  0
  2  5  1  0
  3  6  2  0
  4  7  2  0
  4  8  1  0
  5  9  2  0
  6  9  1  0
  7 10  1  0
  8 11  2  0
  9 18  1  0
 10 12  2  0
 10 22  1  0
 11 12  1  0
 11 23  1  0
 12 24  1  0
 13 16  2  0
 13 17  1  0
 14 15  2  0
 14 21  1  0
 15 17  1  0
 15 22  1  0
 16 19  1  0
 16 21  1  0
 17 20  2  0
 18 19  2  0
  1 25  1  0
  2 26  1  0
  3 27  1  0
  4 28  1  0
  5 29  1  0
  6 30  1  0
  7 31  1  0
  8 32  1  0
 13 33  1  0
 14 34  1  0
 18 35  1  0
 19 36  1  0
M  END
>  <Name>  (262) 
CHEMBL3623410

>  <Comment>  (262) 
 Schrodinger Suite 2021-4.

>  <s_m_entry_id>  (262) 
1259

>  <class_value>  (262) 
0

>  <s_m_Source_Path>  (262) 
C:\Users\vinicius\Desktop

>  <s_m_Source_File>  (262) 
Ligands_Saureus_o.sdf

>  <i_m_Source_File_Index>  (262) 
151

>  <r_lp_tautomer_probability>  (262) 
1

>  <r_epik_Ionization_Penalty>  (262) 
0

>  <r_epik_State_Penalty>  (262) 
0

>  <i_epik_Tot_Q>  (262) 
0

>  <i_f3d_flags>  (262) 
0

>  <s_m_job_name>  (262) 
Saureus_o

>  <FRED Chemgauss4 score>  (262) 
-12.140159

>  <Set>  (262) 
test

>  <HBA count>  (262) 
3

>  <HBD count>  (262) 
0

>  <ExactMolWt>  (262) 
358.0163496040003

>  <NumRotatableBounds>  (262) 
4

>  <FractionCsp3>  (262) 
0.0

>  <TPSA>  (262) 
39.44

>  <LogP_WildmanCrippen>  (262) 
5.909300000000002

>  <General_Cluster>  (262) 
4

>  <Biological_Cluster>  (262) 
2

>  <Physicochemical_Cluster>  (262) 
3

>  <Structural_Cluster>  (262) 
1

$$$$
CHEMBL3676417
     RDKit          3D

 60 63  0  0  1  0  0  0  0  0999 V2000
  105.5456   63.7431   44.3122 C   0  0  0  0  0  0  0  0  0  0  0  0
  107.2933   62.5364   45.4639 C   0  0  0  0  0  0  0  0  0  0  0  0
  104.6256   62.7611   44.6793 C   0  0  0  0  0  0  0  0  0  0  0  0
  106.3733   61.5543   45.8310 C   0  0  0  0  0  0  0  0  0  0  0  0
  110.2600   67.2248   35.4964 C   0  0  0  0  0  0  0  0  0  0  0  0
  111.1990   65.4037   34.2970 C   0  0  0  0  0  0  0  0  0  0  0  0
  110.8437   65.9642   35.5107 C   0  0  0  0  0  0  0  0  0  0  0  0
  110.0676   67.8902   34.2841 C   0  0  0  0  0  0  0  0  0  0  0  0
  106.8795   63.6308   44.7045 C   0  0  0  0  0  0  0  0  0  0  0  0
  105.0394   61.6667   45.4387 C   0  0  0  0  0  0  0  0  0  0  0  0
  110.4636   67.2449   33.1151 C   0  0  0  0  0  0  0  0  0  0  0  0
  109.8531   69.1922   31.7265 C   0  0  0  0  0  0  0  0  0  0  0  0
  111.0892   65.2540   36.7778 C   0  0  0  0  0  0  0  0  0  0  0  0
  111.1550   65.8341   37.9855 C   0  0  0  0  0  0  0  0  0  0  0  0
  111.4134   65.0801   39.2282 C   0  0  0  0  0  0  0  0  0  0  0  0
  111.0526   70.7492   33.2697 C   0  0  0  0  0  0  0  0  0  0  0  0
  109.3580   69.2099   34.2222 C   0  0  0  0  0  0  0  0  0  0  0  0
  108.6969   66.4299   41.1961 C   0  0  0  0  0  0  0  0  0  0  0  0
  109.8089   64.4746   42.3445 C   0  0  0  0  0  0  0  0  0  0  0  0
  110.0412   66.7762   40.5598 C   0  0  0  0  0  0  0  0  0  0  0  0
  111.1223   64.8641   41.6676 C   0  0  0  0  0  0  0  0  0  0  0  0
  109.7686   70.0223   32.9960 C   0  0  2  0  0  0  0  0  0  0  0  0
  108.8922   65.6942   42.5321 C   0  0  0  0  0  0  0  0  0  0  0  0
  112.0479   72.3234   34.7241 C   0  0  0  0  0  0  0  0  0  0  0  0
  107.5481   65.2776   43.1243 C   0  0  0  0  0  0  0  0  0  0  0  0
  111.0169   66.0087   33.1022 N   0  0  0  0  0  0  0  0  0  0  0  0
  110.2647   67.8845   31.8784 N   0  0  0  0  0  0  0  0  0  0  0  0
  110.8628   65.5677   40.4098 N   0  0  0  0  0  0  0  0  0  0  0  0
  109.6511   69.6996   30.6221 O   0  0  0  0  0  0  0  0  0  0  0  0
  112.0990   64.0597   39.1432 O   0  0  0  0  0  0  0  0  0  0  0  0
  112.0728   70.6107   32.6085 O   0  0  0  0  0  0  0  0  0  0  0  0
  107.7852   64.5975   44.3430 O   0  0  0  0  0  0  0  0  0  0  0  0
  110.8928   71.5659   34.3497 O   0  0  0  0  0  0  0  0  0  0  0  0
  104.1559   60.7236   45.7913 F   0  0  0  0  0  0  0  0  0  0  0  0
  105.2193   64.6061   43.7133 H   0  0  0  0  0  0  0  0  0  0  0  0
  108.3452   62.4478   45.7733 H   0  0  0  0  0  0  0  0  0  0  0  0
  103.5737   62.8497   44.3699 H   0  0  0  0  0  0  0  0  0  0  0  0
  106.6996   60.6912   46.4298 H   0  0  0  0  0  0  0  0  0  0  0  0
  109.9496   67.6984   36.4395 H   0  0  0  0  0  0  0  0  0  0  0  0
  111.6580   64.4041   34.3047 H   0  0  0  0  0  0  0  0  0  0  0  0
  111.2294   64.1640   36.7299 H   0  0  0  0  0  0  0  0  0  0  0  0
  111.0096   66.9224   38.0531 H   0  0  0  0  0  0  0  0  0  0  0  0
  108.2738   69.0288   34.1816 H   0  0  0  0  0  0  0  0  0  0  0  0
  109.6315   69.7855   35.1188 H   0  0  0  0  0  0  0  0  0  0  0  0
  108.1342   67.3579   41.3755 H   0  0  0  0  0  0  0  0  0  0  0  0
  108.1445   65.7704   40.5106 H   0  0  0  0  0  0  0  0  0  0  0  0
  109.2917   63.7305   41.7210 H   0  0  0  0  0  0  0  0  0  0  0  0
  110.0402   64.0591   43.3364 H   0  0  0  0  0  0  0  0  0  0  0  0
  109.8692   67.2228   39.5694 H   0  0  0  0  0  0  0  0  0  0  0  0
  110.5703   67.4893   41.2090 H   0  0  0  0  0  0  0  0  0  0  0  0
  111.6942   65.5217   42.3388 H   0  0  0  0  0  0  0  0  0  0  0  0
  111.6958   63.9505   41.4521 H   0  0  0  0  0  0  0  0  0  0  0  0
  108.9725   70.7584   32.8105 H   0  0  0  0  0  0  0  0  0  0  0  0
  109.3747   66.3842   43.2400 H   0  0  0  0  0  0  0  0  0  0  0  0
  112.1170   72.3687   35.8210 H   0  0  0  0  0  0  0  0  0  0  0  0
  112.9498   71.8408   34.3195 H   0  0  0  0  0  0  0  0  0  0  0  0
  111.9647   73.3429   34.3195 H   0  0  0  0  0  0  0  0  0  0  0  0
  106.9325   66.1698   43.3111 H   0  0  0  0  0  0  0  0  0  0  0  0
  107.0153   64.6189   42.4228 H   0  0  0  0  0  0  0  0  0  0  0  0
  110.4391   67.3365   31.0239 H   0  0  0  0  0  0  0  0  0  0  0  0
  1  3  2  0
  1  9  1  0
  2  4  1  0
  2  9  2  0
  3 10  1  0
  4 10  2  0
  5  7  2  0
  5  8  1  0
  6  7  1  0
  6 26  2  0
  7 13  1  0
  8 11  2  0
  8 17  1  0
  9 32  1  0
 10 34  1  0
 11 26  1  0
 11 27  1  0
 12 22  1  0
 12 27  1  0
 12 29  2  0
 13 14  2  0
 14 15  1  0
 15 28  1  0
 15 30  2  0
 16 22  1  0
 16 31  2  0
 16 33  1  0
 17 22  1  0
 18 20  1  0
 18 23  1  0
 19 21  1  0
 19 23  1  0
 20 28  1  0
 21 28  1  0
 23 25  1  0
 24 33  1  0
 25 32  1  0
  1 35  1  0
  2 36  1  0
  3 37  1  0
  4 38  1  0
  5 39  1  0
  6 40  1  0
 13 41  1  0
 14 42  1  0
 17 43  1  0
 17 44  1  0
 18 45  1  0
 18 46  1  0
 19 47  1  0
 19 48  1  0
 20 49  1  0
 20 50  1  0
 21 51  1  0
 21 52  1  0
 22 53  1  6
 23 54  1  0
 24 55  1  0
 24 56  1  0
 24 57  1  0
 25 58  1  0
 25 59  1  0
 27 60  1  0
M  END
>  <Name>  (263) 
CHEMBL3676417

>  <Comment>  (263) 
 Schrodinger Suite 2021-4.

>  <s_m_entry_id>  (263) 
1425

>  <s_m_Source_Path>  (263) 
C:\Users\vinicius\Desktop

>  <s_m_Source_File>  (263) 
Ligands_Saureus_failomega.smi

>  <i_m_Source_File_Index>  (263) 
1

>  <r_lp_tautomer_probability>  (263) 
1

>  <r_epik_Ionization_Penalty>  (263) 
0.006

>  <r_epik_State_Penalty>  (263) 
0.0044

>  <i_epik_Tot_Q>  (263) 
0

>  <i_f3d_flags>  (263) 
0

>  <s_m_job_name>  (263) 
Saureus_fail

>  <class_value>  (263) 
1

>  <FRED Chemgauss4 score>  (263) 
-13.511324

>  <Set>  (263) 
test

>  <HBA count>  (263) 
6

>  <HBD count>  (263) 
1

>  <ExactMolWt>  (263) 
467.1856491520007

>  <NumRotatableBounds>  (263) 
7

>  <FractionCsp3>  (263) 
0.36

>  <TPSA>  (263) 
97.83000000000001

>  <LogP_WildmanCrippen>  (263) 
2.835300000000001

>  <General_Cluster>  (263) 
1

>  <Biological_Cluster>  (263) 
1

>  <Physicochemical_Cluster>  (263) 
4

>  <Structural_Cluster>  (263) 
2

$$$$
CHEMBL435958
     RDKit          3D

 32 34  0  0  0  0  0  0  0  0999 V2000
  113.0284   66.2073   38.2589 C   0  0  0  0  0  0  0  0  0  0  0  0
  112.5935   65.9666   39.5621 C   0  0  0  0  0  0  0  0  0  0  0  0
  112.1210   66.1587   37.2006 C   0  0  0  0  0  0  0  0  0  0  0  0
  111.3427   70.3820   32.4434 C   0  0  0  0  0  0  0  0  0  0  0  0
  110.3437   65.6287   38.7488 C   0  0  0  0  0  0  0  0  0  0  0  0
  110.3719   68.0886   35.3601 C   0  0  0  0  0  0  0  0  0  0  0  0
  111.5707   71.7391   32.3820 C   0  0  0  0  0  0  0  0  0  0  0  0
  110.9815   71.0033   34.6538 C   0  0  0  0  0  0  0  0  0  0  0  0
  110.3873   66.3735   33.9607 C   0  0  0  0  0  0  0  0  0  0  0  0
  111.0012   69.9556   33.7594 C   0  0  0  0  0  0  0  0  0  0  0  0
  111.2511   65.6773   39.8071 C   0  0  0  0  0  0  0  0  0  0  0  0
  110.7787   65.8694   37.4455 C   0  0  0  0  0  0  0  0  0  0  0  0
  110.7043   68.5585   34.1209 C   0  0  0  0  0  0  0  0  0  0  0  0
  110.7917   65.4230   41.1820 C   0  0  0  0  0  0  0  0  0  0  0  0
  109.8083   65.8172   36.3139 C   0  0  0  0  0  0  0  0  0  0  0  0
  110.1809   66.7340   35.2316 N   0  0  0  0  0  0  0  0  0  0  0  0
  110.7066   67.4758   33.2749 N   0  0  0  0  0  4  0  0  0  0  0  0
  109.5469   65.1584   41.3806 O   0  0  0  0  0  1  0  0  0  0  0  0
  111.6493   65.4735   42.1415 O   0  0  0  0  0  0  0  0  0  0  0  0
  111.3732   72.4934   33.9066 S   0  0  0  0  0  0  0  0  0  0  0  0
  114.0870   66.4355   38.0657 H   0  0  0  0  0  0  0  0  0  0  0  0
  113.3091   66.0049   40.3966 H   0  0  0  0  0  0  0  0  0  0  0  0
  112.4641   66.3485   36.1728 H   0  0  0  0  0  0  0  0  0  0  0  0
  111.4157   69.7068   31.5781 H   0  0  0  0  0  0  0  0  0  0  0  0
  109.2851   65.4006   38.9420 H   0  0  0  0  0  0  0  0  0  0  0  0
  110.2758   68.6804   36.2824 H   0  0  0  0  0  0  0  0  0  0  0  0
  111.8471   72.2751   31.4620 H   0  0  0  0  0  0  0  0  0  0  0  0
  110.7423   70.8953   35.7220 H   0  0  0  0  0  0  0  0  0  0  0  0
  110.3087   65.3548   33.5533 H   0  0  0  0  0  0  0  0  0  0  0  0
  109.7794   64.7916   35.9172 H   0  0  0  0  0  0  0  0  0  0  0  0
  108.8228   66.1226   36.6954 H   0  0  0  0  0  0  0  0  0  0  0  0
  110.9212   67.5084   32.2680 H   0  0  0  0  0  0  0  0  0  0  0  0
  1  2  2  0
  1  3  1  0
  2 11  1  0
  3 12  2  0
  4  7  2  0
  4 10  1  0
  5 11  2  0
  5 12  1  0
  6 13  2  0
  6 16  1  0
  7 20  1  0
  8 10  2  0
  8 20  1  0
  9 16  1  0
  9 17  2  0
 10 13  1  0
 11 14  1  0
 12 15  1  0
 13 17  1  0
 14 18  1  0
 14 19  2  0
 15 16  1  0
  1 21  1  0
  2 22  1  0
  3 23  1  0
  4 24  1  0
  5 25  1  0
  6 26  1  0
  7 27  1  0
  8 28  1  0
  9 29  1  0
 15 30  1  0
 15 31  1  0
 17 32  1  0
M  CHG  2  17   1  18  -1
M  END
>  <Name>  (264) 
CHEMBL435958

>  <Comment>  (264) 
 Schrodinger Suite 2021-4.

>  <s_m_entry_id>  (264) 
1332

>  <class_value>  (264) 
0

>  <s_m_Source_Path>  (264) 
C:\Users\vinicius\Desktop

>  <s_m_Source_File>  (264) 
Ligands_Saureus_o.sdf

>  <i_m_Source_File_Index>  (264) 
196

>  <r_lp_tautomer_probability>  (264) 
1

>  <r_epik_Ionization_Penalty>  (264) 
0.524

>  <r_epik_State_Penalty>  (264) 
0.5317

>  <i_epik_Tot_Q>  (264) 
0

>  <i_f3d_flags>  (264) 
0

>  <s_m_job_name>  (264) 
Saureus_o

>  <FRED Chemgauss4 score>  (264) 
-12.338241

>  <Set>  (264) 
test

>  <HBA count>  (264) 
4

>  <HBD count>  (264) 
0

>  <ExactMolWt>  (264) 
284.06194862400037

>  <NumRotatableBounds>  (264) 
4

>  <FractionCsp3>  (264) 
0.06666666666666667

>  <TPSA>  (264) 
59.199999999999996

>  <LogP_WildmanCrippen>  (264) 
1.4425000000000001

>  <General_Cluster>  (264) 
4

>  <Biological_Cluster>  (264) 
2

>  <Physicochemical_Cluster>  (264) 
3

>  <Structural_Cluster>  (264) 
1

$$$$
CHEMBL3623390
     RDKit          3D

 36 38  0  0  0  0  0  0  0  0999 V2000
  106.3192   63.3647   44.6165 C   0  0  0  0  0  0  0  0  0  0  0  0
  107.5446   62.8127   44.2433 C   0  0  0  0  0  0  0  0  0  0  0  0
  105.8425   64.5056   43.9708 C   0  0  0  0  0  0  0  0  0  0  0  0
  108.2934   63.4015   43.2243 C   0  0  0  0  0  0  0  0  0  0  0  0
  106.5913   65.0944   42.9518 C   0  0  0  0  0  0  0  0  0  0  0  0
  111.0451   66.7380   35.2575 C   0  0  0  0  0  0  0  0  0  0  0  0
  110.3092   66.8553   34.0783 C   0  0  0  0  0  0  0  0  0  0  0  0
  110.1283   69.2390   34.4284 C   0  0  0  0  0  0  0  0  0  0  0  0
  107.8167   64.5424   42.5786 C   0  0  0  0  0  0  0  0  0  0  0  0
  111.3225   67.8712   36.0222 C   0  0  0  0  0  0  0  0  0  0  0  0
  109.8509   68.1058   33.6638 C   0  0  0  0  0  0  0  0  0  0  0  0
  110.8641   69.1216   35.6076 C   0  0  0  0  0  0  0  0  0  0  0  0
  111.2462   64.6560   39.2339 C   0  0  0  0  0  0  0  0  0  0  0  0
  110.7053   67.3703   39.1023 C   0  0  0  0  0  0  0  0  0  0  0  0
  111.5197   66.9108   38.1459 C   0  0  0  0  0  0  0  0  0  0  0  0
  110.4446   65.2511   40.1298 C   0  0  0  0  0  0  0  0  0  0  0  0
  111.8522   65.4676   38.1541 C   0  0  0  0  0  0  0  0  0  0  0  0
  109.7894   64.5108   41.2507 C   0  0  0  0  0  0  0  0  0  0  0  0
  112.5895   64.9646   37.3146 O   0  0  0  0  0  0  0  0  0  0  0  0
  110.1484   66.6055   40.0987 O   0  0  0  0  0  0  0  0  0  0  0  0
  112.0464   67.7269   37.1743 O   0  0  0  0  0  0  0  0  0  0  0  0
  108.5538   65.1231   41.5770 O   0  0  0  0  0  0  0  0  0  0  0  0
  108.9428   68.2490   32.2088 Cl  0  0  0  0  0  0  0  0  0  0  0  0
  111.1925   70.5390   36.5344 Cl  0  0  0  0  0  0  0  0  0  0  0  0
  105.7287   62.9003   45.4200 H   0  0  0  0  0  0  0  0  0  0  0  0
  107.9205   61.9131   44.7526 H   0  0  0  0  0  0  0  0  0  0  0  0
  104.8762   64.9409   44.2652 H   0  0  0  0  0  0  0  0  0  0  0  0
  109.2597   62.9662   42.9299 H   0  0  0  0  0  0  0  0  0  0  0  0
  106.2154   65.9940   42.4425 H   0  0  0  0  0  0  0  0  0  0  0  0
  111.4067   65.7519   35.5844 H   0  0  0  0  0  0  0  0  0  0  0  0
  110.0903   65.9617   33.4753 H   0  0  0  0  0  0  0  0  0  0  0  0
  109.7668   70.2251   34.1015 H   0  0  0  0  0  0  0  0  0  0  0  0
  111.4510   63.5773   39.3007 H   0  0  0  0  0  0  0  0  0  0  0  0
  110.4627   68.4431   39.0902 H   0  0  0  0  0  0  0  0  0  0  0  0
  109.6107   63.4695   40.9446 H   0  0  0  0  0  0  0  0  0  0  0  0
  110.4475   64.5320   42.1318 H   0  0  0  0  0  0  0  0  0  0  0  0
  1  2  2  0
  1  3  1  0
  2  4  1  0
  3  5  2  0
  4  9  2  0
  5  9  1  0
  6  7  2  0
  6 10  1  0
  7 11  1  0
  8 11  2  0
  8 12  1  0
  9 22  1  0
 10 12  2  0
 10 21  1  0
 11 23  1  0
 12 24  1  0
 13 16  2  0
 13 17  1  0
 14 15  2  0
 14 20  1  0
 15 17  1  0
 15 21  1  0
 16 18  1  0
 16 20  1  0
 17 19  2  0
 18 22  1  0
  1 25  1  0
  2 26  1  0
  3 27  1  0
  4 28  1  0
  5 29  1  0
  6 30  1  0
  7 31  1  0
  8 32  1  0
 13 33  1  0
 14 34  1  0
 18 35  1  0
 18 36  1  0
M  END
>  <Name>  (265) 
CHEMBL3623390

>  <Comment>  (265) 
 Schrodinger Suite 2021-4.

>  <s_m_entry_id>  (265) 
1182

>  <class_value>  (265) 
1

>  <s_m_Source_Path>  (265) 
C:\Users\vinicius\Desktop

>  <s_m_Source_File>  (265) 
Ligands_Saureus_o.sdf

>  <i_m_Source_File_Index>  (265) 
86

>  <r_lp_tautomer_probability>  (265) 
1

>  <r_epik_Ionization_Penalty>  (265) 
0

>  <r_epik_State_Penalty>  (265) 
0

>  <i_epik_Tot_Q>  (265) 
0

>  <i_f3d_flags>  (265) 
0

>  <s_m_job_name>  (265) 
Saureus_o

>  <FRED Chemgauss4 score>  (265) 
-12.218095

>  <Set>  (265) 
test

>  <HBA count>  (265) 
4

>  <HBD count>  (265) 
0

>  <ExactMolWt>  (265) 
362.0112642240003

>  <NumRotatableBounds>  (265) 
5

>  <FractionCsp3>  (265) 
0.05555555555555555

>  <TPSA>  (265) 
48.67

>  <LogP_WildmanCrippen>  (265) 
5.317900000000002

>  <General_Cluster>  (265) 
4

>  <Biological_Cluster>  (265) 
1

>  <Physicochemical_Cluster>  (265) 
3

>  <Structural_Cluster>  (265) 
1

$$$$
CHEMBL3621748
     RDKit          3D

 40 42  0  0  0  0  0  0  0  0999 V2000
  107.5575   63.2063   44.6036 C   0  0  0  0  0  0  0  0  0  0  0  0
  107.4375   64.5873   44.4489 C   0  0  0  0  0  0  0  0  0  0  0  0
  108.2819   62.4606   43.6737 C   0  0  0  0  0  0  0  0  0  0  0  0
  109.4779   69.6640   33.4314 C   0  0  0  0  0  0  0  0  0  0  0  0
  108.0419   65.2227   43.3642 C   0  0  0  0  0  0  0  0  0  0  0  0
  108.8863   63.0959   42.5889 C   0  0  0  0  0  0  0  0  0  0  0  0
  110.2916   70.6105   34.0540 C   0  0  0  0  0  0  0  0  0  0  0  0
  109.4661   68.3460   33.8879 C   0  0  0  0  0  0  0  0  0  0  0  0
  108.7663   64.4770   42.4341 C   0  0  0  0  0  0  0  0  0  0  0  0
  111.0820   68.9210   35.5895 C   0  0  0  0  0  0  0  0  0  0  0  0
  111.0937   70.2390   35.1330 C   0  0  0  0  0  0  0  0  0  0  0  0
  110.2682   67.9745   34.9669 C   0  0  0  0  0  0  0  0  0  0  0  0
  110.8160   66.2002   39.4358 C   0  0  0  0  0  0  0  0  0  0  0  0
  110.3228   68.7569   38.4489 C   0  0  0  0  0  0  0  0  0  0  0  0
  111.2310   68.0544   37.7570 C   0  0  0  0  0  0  0  0  0  0  0  0
  109.9231   67.0065   40.0438 C   0  0  0  0  0  0  0  0  0  0  0  0
  111.5421   66.6802   38.2294 C   0  0  0  0  0  0  0  0  0  0  0  0
  108.6735   69.1743   40.2410 C   0  0  0  0  0  0  0  0  0  0  0  0
  109.1990   66.5025   41.2655 C   0  0  0  0  0  0  0  0  0  0  0  0
  109.6458   68.3050   39.5760 N   0  0  0  0  0  0  0  0  0  0  0  0
  112.3592   65.9685   37.6563 O   0  0  0  0  0  0  0  0  0  0  0  0
  111.8681   68.5563   36.6486 O   0  0  0  0  0  0  0  0  0  0  0  0
  109.3606   65.1023   41.3642 O   0  0  0  0  0  0  0  0  0  0  0  0
  112.0892   71.4340   35.8805 Cl  0  0  0  0  0  0  0  0  0  0  0  0
  110.2328   66.3357   35.5067 Cl  0  0  0  0  0  0  0  0  0  0  0  0
  107.0808   62.7052   45.4590 H   0  0  0  0  0  0  0  0  0  0  0  0
  106.8662   65.1753   45.1823 H   0  0  0  0  0  0  0  0  0  0  0  0
  108.3766   61.3715   43.7958 H   0  0  0  0  0  0  0  0  0  0  0  0
  108.8455   69.9570   32.5804 H   0  0  0  0  0  0  0  0  0  0  0  0
  107.9473   66.3118   43.2422 H   0  0  0  0  0  0  0  0  0  0  0  0
  109.4575   62.5078   41.8555 H   0  0  0  0  0  0  0  0  0  0  0  0
  110.3008   71.6499   33.6941 H   0  0  0  0  0  0  0  0  0  0  0  0
  108.8243   67.5996   33.3970 H   0  0  0  0  0  0  0  0  0  0  0  0
  111.0070   65.1912   39.8302 H   0  0  0  0  0  0  0  0  0  0  0  0
  110.0947   69.7735   38.0962 H   0  0  0  0  0  0  0  0  0  0  0  0
  108.7812   69.0780   41.3315 H   0  0  0  0  0  0  0  0  0  0  0  0
  108.8530   70.2186   39.9456 H   0  0  0  0  0  0  0  0  0  0  0  0
  107.6558   68.8795   39.9456 H   0  0  0  0  0  0  0  0  0  0  0  0
  109.6149   66.9838   42.1629 H   0  0  0  0  0  0  0  0  0  0  0  0
  108.1289   66.7433   41.1830 H   0  0  0  0  0  0  0  0  0  0  0  0
  1  2  2  0
  1  3  1  0
  2  5  1  0
  3  6  2  0
  4  7  2  0
  4  8  1  0
  5  9  2  0
  6  9  1  0
  7 11  1  0
  8 12  2  0
  9 23  1  0
 10 11  2  0
 10 12  1  0
 10 22  1  0
 11 24  1  0
 12 25  1  0
 13 16  2  0
 13 17  1  0
 14 15  2  0
 14 20  1  0
 15 17  1  0
 15 22  1  0
 16 19  1  0
 16 20  1  0
 17 21  2  0
 18 20  1  0
 19 23  1  0
  1 26  1  0
  2 27  1  0
  3 28  1  0
  4 29  1  0
  5 30  1  0
  6 31  1  0
  7 32  1  0
  8 33  1  0
 13 34  1  0
 14 35  1  0
 18 36  1  0
 18 37  1  0
 18 38  1  0
 19 39  1  0
 19 40  1  0
M  END
>  <Name>  (266) 
CHEMBL3621748

>  <Comment>  (266) 
 Schrodinger Suite 2021-4.

>  <s_m_entry_id>  (266) 
1186

>  <class_value>  (266) 
1

>  <s_m_Source_Path>  (266) 
C:\Users\vinicius\Desktop

>  <s_m_Source_File>  (266) 
Ligands_Saureus_o.sdf

>  <i_m_Source_File_Index>  (266) 
89

>  <r_lp_tautomer_probability>  (266) 
1

>  <r_epik_Ionization_Penalty>  (266) 
0

>  <r_epik_State_Penalty>  (266) 
0

>  <i_epik_Tot_Q>  (266) 
0

>  <i_f3d_flags>  (266) 
0

>  <s_m_job_name>  (266) 
Saureus_o

>  <FRED Chemgauss4 score>  (266) 
-13.013802

>  <Set>  (266) 
test

>  <HBA count>  (266) 
4

>  <HBD count>  (266) 
0

>  <ExactMolWt>  (266) 
375.04289870000036

>  <NumRotatableBounds>  (266) 
6

>  <FractionCsp3>  (266) 
0.10526315789473684

>  <TPSA>  (266) 
40.46

>  <LogP_WildmanCrippen>  (266) 
5.063400000000003

>  <General_Cluster>  (266) 
1

>  <Biological_Cluster>  (266) 
1

>  <Physicochemical_Cluster>  (266) 
3

>  <Structural_Cluster>  (266) 
5

$$$$
FULL_S21
     RDKit          3D

 63 67  0  0  0  0  0  0  0  0999 V2000
  111.2044   65.7002   33.0232 C   0  0  0  0  0  0  0  0  0  0  0  0
  110.5846   66.9388   32.8728 C   0  0  0  0  0  0  0  0  0  0  0  0
  111.5306   65.2119   34.2935 C   0  0  0  0  0  0  0  0  0  0  0  0
  110.0427   67.7312   41.8392 C   0  0  0  0  0  0  0  0  0  0  0  0
  108.5152   65.8598   41.7995 C   0  0  0  0  0  0  0  0  0  0  0  0
  109.0629   68.5181   42.4444 C   0  0  0  0  0  0  0  0  0  0  0  0
  107.5354   66.6467   42.4048 C   0  0  0  0  0  0  0  0  0  0  0  0
  111.7534   70.6339   36.5323 C   0  0  0  0  0  0  0  0  0  0  0  0
  109.9901   70.7407   34.8841 C   0  0  0  0  0  0  0  0  0  0  0  0
  110.2710   67.7273   33.9833 C   0  0  0  0  0  0  0  0  0  0  0  0
  112.4320   71.6586   35.8728 C   0  0  0  0  0  0  0  0  0  0  0  0
  110.6687   71.7654   34.2245 C   0  0  0  0  0  0  0  0  0  0  0  0
  111.2256   65.9886   35.4293 C   0  0  0  0  0  0  0  0  0  0  0  0
  109.7688   66.4021   41.5166 C   0  0  0  0  0  0  0  0  0  0  0  0
  111.4040   65.8182   36.8291 C   0  0  0  0  0  0  0  0  0  0  0  0
  110.5324   70.1749   36.0380 C   0  0  0  0  0  0  0  0  0  0  0  0
  107.8092   67.9759   42.7273 C   0  0  0  0  0  0  0  0  0  0  0  0
  110.6019   67.2282   35.2484 C   0  0  0  0  0  0  0  0  0  0  0  0
  111.8897   72.2244   34.7189 C   0  0  0  0  0  0  0  0  0  0  0  0
  110.8901   66.9344   37.4546 C   0  0  0  0  0  0  0  0  0  0  0  0
  110.8014   65.5712   40.8788 C   0  0  0  0  0  0  0  0  0  0  0  0
  111.9977   64.6994   37.6099 C   0  0  0  0  0  0  0  0  0  0  0  0
  110.8639   67.2002   38.9165 C   0  0  0  0  0  0  0  0  0  0  0  0
  112.3907   65.1929   39.0128 C   0  0  0  0  0  0  0  0  0  0  0  0
  106.9241   70.3199   42.9876 C   0  0  0  0  0  0  0  0  0  0  0  0
  106.8423   68.7219   44.9308 C   0  0  0  0  0  0  0  0  0  0  0  0
  105.2854   68.4502   43.0116 C   0  0  0  0  0  0  0  0  0  0  0  0
  109.7999   69.0698   36.7498 C   0  0  0  0  0  0  0  0  0  0  0  0
  106.7622   68.8175   43.3755 C   0  0  0  0  0  0  0  0  0  0  0  0
  110.4114   67.7820   36.4971 N   0  0  0  0  0  0  0  0  0  0  0  0
  111.3073   65.9807   39.6393 N   0  0  0  0  0  0  0  0  0  0  0  0
  111.1517   64.5667   41.4967 O   0  0  0  0  0  0  0  0  0  0  0  0
  112.5514   73.2251   34.0762 O   0  0  0  0  0  0  0  0  0  0  0  0
  111.4402   65.0989   32.1328 H   0  0  0  0  0  0  0  0  0  0  0  0
  110.3382   67.3019   31.8641 H   0  0  0  0  0  0  0  0  0  0  0  0
  112.0196   64.2328   34.4043 H   0  0  0  0  0  0  0  0  0  0  0  0
  111.0314   68.1588   41.6163 H   0  0  0  0  0  0  0  0  0  0  0  0
  108.2993   64.8116   41.5453 H   0  0  0  0  0  0  0  0  0  0  0  0
  109.2788   69.5663   42.6986 H   0  0  0  0  0  0  0  0  0  0  0  0
  106.5468   66.2191   42.6278 H   0  0  0  0  0  0  0  0  0  0  0  0
  112.1811   70.1877   37.4422 H   0  0  0  0  0  0  0  0  0  0  0  0
  109.0273   70.3788   34.4943 H   0  0  0  0  0  0  0  0  0  0  0  0
  109.7815   68.7055   33.8672 H   0  0  0  0  0  0  0  0  0  0  0  0
  113.3948   72.0205   36.2626 H   0  0  0  0  0  0  0  0  0  0  0  0
  110.2411   72.2115   33.3145 H   0  0  0  0  0  0  0  0  0  0  0  0
  111.2615   63.8873   37.7016 H   0  0  0  0  0  0  0  0  0  0  0  0
  112.8945   64.3304   37.0907 H   0  0  0  0  0  0  0  0  0  0  0  0
  111.5411   68.0346   39.1515 H   0  0  0  0  0  0  0  0  0  0  0  0
  109.8424   67.4648   39.2272 H   0  0  0  0  0  0  0  0  0  0  0  0
  112.6115   64.3224   39.6480 H   0  0  0  0  0  0  0  0  0  0  0  0
  113.2730   65.8422   38.9130 H   0  0  0  0  0  0  0  0  0  0  0  0
  106.9898   70.9294   43.9010 H   0  0  0  0  0  0  0  0  0  0  0  0
  107.8413   70.4486   42.3942 H   0  0  0  0  0  0  0  0  0  0  0  0
  106.0554   70.6410   42.3942 H   0  0  0  0  0  0  0  0  0  0  0  0
  106.1972   69.4918   45.3792 H   0  0  0  0  0  0  0  0  0  0  0  0
  106.5046   67.7264   45.2548 H   0  0  0  0  0  0  0  0  0  0  0  0
  107.8815   68.8801   45.2548 H   0  0  0  0  0  0  0  0  0  0  0  0
  104.7053   68.3059   43.9350 H   0  0  0  0  0  0  0  0  0  0  0  0
  104.8396   69.2648   42.4220 H   0  0  0  0  0  0  0  0  0  0  0  0
  105.2731   67.5216   42.4220 H   0  0  0  0  0  0  0  0  0  0  0  0
  109.8171   69.2680   37.8317 H   0  0  0  0  0  0  0  0  0  0  0  0
  108.7664   69.0418   36.3743 H   0  0  0  0  0  0  0  0  0  0  0  0
  112.1666   73.6268   33.2572 H   0  0  0  0  0  0  0  0  0  0  0  0
  1  2  2  0
  1  3  1  0
  2 10  1  0
  3 13  2  0
  4  6  2  0
  4 14  1  0
  5  7  1  0
  5 14  2  0
  6 17  1  0
  7 17  2  0
  8 11  2  0
  8 16  1  0
  9 12  1  0
  9 16  2  0
 10 18  2  0
 11 19  1  0
 12 19  2  0
 13 15  1  0
 13 18  1  0
 14 21  1  0
 15 20  2  0
 15 22  1  0
 16 28  1  0
 17 29  1  0
 18 30  1  0
 19 33  1  0
 20 23  1  0
 20 30  1  0
 21 31  1  0
 21 32  2  0
 22 24  1  0
 23 31  1  0
 24 31  1  0
 25 29  1  0
 26 29  1  0
 27 29  1  0
 28 30  1  0
  1 34  1  0
  2 35  1  0
  3 36  1  0
  4 37  1  0
  5 38  1  0
  6 39  1  0
  7 40  1  0
  8 41  1  0
  9 42  1  0
 10 43  1  0
 11 44  1  0
 12 45  1  0
 22 46  1  0
 22 47  1  0
 23 48  1  0
 23 49  1  0
 24 50  1  0
 24 51  1  0
 25 52  1  0
 25 53  1  0
 25 54  1  0
 26 55  1  0
 26 56  1  0
 26 57  1  0
 27 58  1  0
 27 59  1  0
 27 60  1  0
 28 61  1  0
 28 62  1  0
 33 63  1  0
M  END
>  <Name>  (267) 
FULL_S21

>  <Comment>  (267) 
 Schrodinger Suite 2021-4.

>  <s_m_entry_id>  (267) 
1381

>  <class_value>  (267) 
1

>  <s_m_Source_Path>  (267) 
C:\Users\vinicius\Desktop

>  <s_m_Source_File>  (267) 
Ligands_Saureus_o.sdf

>  <i_m_Source_File_Index>  (267) 
225

>  <r_lp_tautomer_probability>  (267) 
0.999999999997365

>  <r_epik_Ionization_Penalty>  (267) 
0.0009

>  <r_epik_State_Penalty>  (267) 
0.0006

>  <i_epik_Tot_Q>  (267) 
0

>  <i_f3d_flags>  (267) 
0

>  <s_m_job_name>  (267) 
Saureus_o

>  <FRED Chemgauss4 score>  (267) 
-11.470849

>  <Set>  (267) 
test

>  <HBA count>  (267) 
3

>  <HBD count>  (267) 
1

>  <ExactMolWt>  (267) 
438.23072820000084

>  <NumRotatableBounds>  (267) 
4

>  <FractionCsp3>  (267) 
0.27586206896551724

>  <TPSA>  (267) 
45.47

>  <LogP_WildmanCrippen>  (267) 
5.891200000000007

>  <General_Cluster>  (267) 
3

>  <Biological_Cluster>  (267) 
1

>  <Physicochemical_Cluster>  (267) 
1

>  <Structural_Cluster>  (267) 
4

$$$$
CHEMBL3621753
     RDKit          3D

 29 30  0  0  0  0  0  0  0  0999 V2000
  110.4481   69.0196   35.1444 C   0  0  0  0  0  0  0  0  0  0  0  0
  110.2893   67.6058   33.1917 C   0  0  0  0  0  0  0  0  0  0  0  0
  110.8569   70.0838   34.3407 C   0  0  0  0  0  0  0  0  0  0  0  0
  110.6980   68.6700   32.3880 C   0  0  0  0  0  0  0  0  0  0  0  0
  110.1643   67.7806   34.5700 C   0  0  0  0  0  0  0  0  0  0  0  0
  110.9818   69.9091   32.9625 C   0  0  0  0  0  0  0  0  0  0  0  0
  112.3446   65.4624   37.8141 C   0  0  0  0  0  0  0  0  0  0  0  0
  110.1178   67.1057   37.6781 C   0  0  0  0  0  0  0  0  0  0  0  0
  110.4631   66.5276   36.5224 C   0  0  0  0  0  0  0  0  0  0  0  0
  111.8863   66.1061   38.8980 C   0  0  0  0  0  0  0  0  0  0  0  0
  111.6446   65.6346   36.5209 C   0  0  0  0  0  0  0  0  0  0  0  0
  110.6359   65.8595   41.6306 C   0  0  0  0  0  0  0  0  0  0  0  0
  112.5280   65.9899   40.2428 C   0  0  0  0  0  0  0  0  0  0  0  0
  112.0288   65.0649   35.5064 O   0  0  0  0  0  0  0  0  0  0  0  0
  110.7758   66.9363   38.8724 O   0  0  0  0  0  0  0  0  0  0  0  0
  109.7640   66.7363   35.3583 O   0  0  0  0  0  0  0  0  0  0  0  0
  111.7451   65.1579   41.0813 O   0  0  0  0  0  0  0  0  0  0  0  0
  111.4874   71.2215   31.9709 Cl  0  0  0  0  0  0  0  0  0  0  0  0
  110.3495   69.1575   36.2313 H   0  0  0  0  0  0  0  0  0  0  0  0
  110.0656   66.6287   32.7387 H   0  0  0  0  0  0  0  0  0  0  0  0
  111.0808   71.0608   34.7938 H   0  0  0  0  0  0  0  0  0  0  0  0
  110.7965   68.5322   31.3011 H   0  0  0  0  0  0  0  0  0  0  0  0
  113.2303   64.8140   37.8852 H   0  0  0  0  0  0  0  0  0  0  0  0
  109.2394   67.7678   37.6720 H   0  0  0  0  0  0  0  0  0  0  0  0
  110.6884   65.8263   42.7288 H   0  0  0  0  0  0  0  0  0  0  0  0
  110.6610   66.9064   41.2938 H   0  0  0  0  0  0  0  0  0  0  0  0
  109.7007   65.3883   41.2938 H   0  0  0  0  0  0  0  0  0  0  0  0
  113.5318   65.5540   40.1314 H   0  0  0  0  0  0  0  0  0  0  0  0
  112.6045   66.9898   40.6948 H   0  0  0  0  0  0  0  0  0  0  0  0
  1  3  2  0
  1  5  1  0
  2  4  1  0
  2  5  2  0
  3  6  1  0
  4  6  2  0
  5 16  1  0
  6 18  1  0
  7 10  2  0
  7 11  1  0
  8  9  2  0
  8 15  1  0
  9 11  1  0
  9 16  1  0
 10 13  1  0
 10 15  1  0
 11 14  2  0
 12 17  1  0
 13 17  1  0
  1 19  1  0
  2 20  1  0
  3 21  1  0
  4 22  1  0
  7 23  1  0
  8 24  1  0
 12 25  1  0
 12 26  1  0
 12 27  1  0
 13 28  1  0
 13 29  1  0
M  END
>  <Name>  (268) 
CHEMBL3621753

>  <Comment>  (268) 
 Schrodinger Suite 2021-4.

>  <s_m_entry_id>  (268) 
1248

>  <class_value>  (268) 
0

>  <s_m_Source_Path>  (268) 
C:\Users\vinicius\Desktop

>  <s_m_Source_File>  (268) 
Ligands_Saureus_o.sdf

>  <i_m_Source_File_Index>  (268) 
140

>  <r_lp_tautomer_probability>  (268) 
1

>  <r_epik_Ionization_Penalty>  (268) 
0

>  <r_epik_State_Penalty>  (268) 
0

>  <i_epik_Tot_Q>  (268) 
0

>  <i_f3d_flags>  (268) 
0

>  <s_m_job_name>  (268) 
Saureus_o

>  <FRED Chemgauss4 score>  (268) 
-10.494168

>  <Set>  (268) 
test

>  <HBA count>  (268) 
4

>  <HBD count>  (268) 
0

>  <ExactMolWt>  (268) 
266.03458651200026

>  <NumRotatableBounds>  (268) 
5

>  <FractionCsp3>  (268) 
0.15384615384615385

>  <TPSA>  (268) 
48.67

>  <LogP_WildmanCrippen>  (268) 
3.231900000000002

>  <General_Cluster>  (268) 
4

>  <Biological_Cluster>  (268) 
2

>  <Physicochemical_Cluster>  (268) 
3

>  <Structural_Cluster>  (268) 
1

$$$$
CHEMBL66526
     RDKit          3D

 32 34  0  0  0  0  0  0  0  0999 V2000
  112.2096   64.9166   40.2804 C   0  0  0  0  0  0  0  0  0  0  0  0
  110.7295   70.9677   34.2251 C   0  0  0  0  0  0  0  0  0  0  0  0
  111.4834   69.9794   32.1535 C   0  0  0  0  0  0  0  0  0  0  0  0
  110.0674   69.7836   34.5491 C   0  0  0  0  0  0  0  0  0  0  0  0
  110.8214   68.7952   32.4775 C   0  0  0  0  0  0  0  0  0  0  0  0
  112.0779   64.8066   38.8659 C   0  0  0  0  0  0  0  0  0  0  0  0
  110.1463   66.9134   36.3850 C   0  0  0  0  0  0  0  0  0  0  0  0
  111.4976   65.9824   40.7851 C   0  0  0  0  0  0  0  0  0  0  0  0
  110.9109   65.5622   34.8209 C   0  0  0  0  0  0  0  0  0  0  0  0
  111.4375   71.0657   33.0272 C   0  0  0  0  0  0  0  0  0  0  0  0
  110.1134   68.6973   33.6754 C   0  0  0  0  0  0  0  0  0  0  0  0
  110.9512   65.9335   36.9164 C   0  0  0  0  0  0  0  0  0  0  0  0
  111.2699   65.7925   38.3434 C   0  0  0  0  0  0  0  0  0  0  0  0
  112.1456   72.3313   32.6800 C   0  0  0  0  0  0  0  0  0  0  0  0
  109.4066   67.4309   34.0234 C   0  0  0  0  0  0  0  0  0  0  0  0
  111.4243   65.0958   35.9376 N   0  0  0  0  0  0  0  0  0  0  0  0
  110.1304   66.6628   35.0418 N   0  0  0  0  0  0  0  0  0  0  0  0
  110.6745   66.8449   39.5559 S   0  0  0  0  0  0  0  0  0  0  0  0
  112.8094   64.2310   40.8970 H   0  0  0  0  0  0  0  0  0  0  0  0
  110.6934   71.8243   34.9142 H   0  0  0  0  0  0  0  0  0  0  0  0
  112.0417   70.0566   31.2089 H   0  0  0  0  0  0  0  0  0  0  0  0
  109.5090   69.7065   35.4937 H   0  0  0  0  0  0  0  0  0  0  0  0
  110.8576   67.9385   31.7884 H   0  0  0  0  0  0  0  0  0  0  0  0
  112.5642   64.0262   38.2621 H   0  0  0  0  0  0  0  0  0  0  0  0
  109.6289   67.7215   36.9229 H   0  0  0  0  0  0  0  0  0  0  0  0
  111.4620   66.2481   41.8519 H   0  0  0  0  0  0  0  0  0  0  0  0
  111.0878   65.1206   33.8291 H   0  0  0  0  0  0  0  0  0  0  0  0
  112.4376   72.8532   33.6032 H   0  0  0  0  0  0  0  0  0  0  0  0
  113.0446   72.0986   32.0903 H   0  0  0  0  0  0  0  0  0  0  0  0
  111.4770   72.9757   32.0903 H   0  0  0  0  0  0  0  0  0  0  0  0
  108.4056   67.6764   34.4078 H   0  0  0  0  0  0  0  0  0  0  0  0
  109.3422   66.8154   33.1140 H   0  0  0  0  0  0  0  0  0  0  0  0
  1  6  1  0
  1  8  2  0
  2  4  2  0
  2 10  1  0
  3  5  1  0
  3 10  2  0
  4 11  1  0
  5 11  2  0
  6 13  2  0
  7 12  2  0
  7 17  1  0
  8 18  1  0
  9 16  2  0
  9 17  1  0
 10 14  1  0
 11 15  1  0
 12 13  1  0
 12 16  1  0
 13 18  1  0
 15 17  1  0
  1 19  1  0
  2 20  1  0
  3 21  1  0
  4 22  1  0
  5 23  1  0
  6 24  1  0
  7 25  1  0
  8 26  1  0
  9 27  1  0
 14 28  1  0
 14 29  1  0
 14 30  1  0
 15 31  1  0
 15 32  1  0
M  END
>  <Name>  (269) 
CHEMBL66526

>  <Comment>  (269) 
 Schrodinger Suite 2021-4.

>  <s_m_entry_id>  (269) 
1318

>  <class_value>  (269) 
0

>  <s_m_Source_Path>  (269) 
C:\Users\vinicius\Desktop

>  <s_m_Source_File>  (269) 
Ligands_Saureus_o.sdf

>  <i_m_Source_File_Index>  (269) 
189

>  <r_lp_tautomer_probability>  (269) 
1

>  <r_epik_Ionization_Penalty>  (269) 
0.1022

>  <r_epik_State_Penalty>  (269) 
0.0921

>  <i_epik_Tot_Q>  (269) 
0

>  <i_f3d_flags>  (269) 
0

>  <s_m_job_name>  (269) 
Saureus_o

>  <FRED Chemgauss4 score>  (269) 
-13.389080

>  <Set>  (269) 
test

>  <HBA count>  (269) 
3

>  <HBD count>  (269) 
0

>  <ExactMolWt>  (269) 
254.087769448

>  <NumRotatableBounds>  (269) 
4

>  <FractionCsp3>  (269) 
0.13333333333333333

>  <TPSA>  (269) 
17.82

>  <LogP_WildmanCrippen>  (269) 
3.968320000000003

>  <General_Cluster>  (269) 
4

>  <Biological_Cluster>  (269) 
2

>  <Physicochemical_Cluster>  (269) 
3

>  <Structural_Cluster>  (269) 
1

$$$$
CHEMBL3676402
     RDKit          3D

 46 47  0  0  1  0  0  0  0  0999 V2000
  109.8277   66.5478   38.9989 C   0  0  0  0  0  0  0  0  0  0  0  0
  111.9319   65.3973   38.7062 C   0  0  0  0  0  0  0  0  0  0  0  0
  109.9873   66.4875   40.3833 C   0  0  0  0  0  0  0  0  0  0  0  0
  112.0916   65.3371   40.0906 C   0  0  0  0  0  0  0  0  0  0  0  0
  110.8000   66.0027   38.1604 C   0  0  0  0  0  0  0  0  0  0  0  0
  111.1192   65.8822   40.9291 C   0  0  0  0  0  0  0  0  0  0  0  0
  110.6887   70.2252   32.5720 C   0  0  0  0  0  0  0  0  0  0  0  0
  110.7501   66.6036   32.5335 C   0  0  0  0  0  0  0  0  0  0  0  0
  110.2864   66.2696   33.9516 C   0  0  0  0  0  0  0  0  0  0  0  0
  110.0459   67.8467   31.9981 C   0  0  0  0  0  0  0  0  0  0  0  0
  109.7440   68.7095   34.2992 C   0  0  0  0  0  0  0  0  0  0  0  0
  110.4498   67.4795   34.8848 C   0  0  1  0  0  0  0  0  0  0  0  0
  112.5717   72.3726   32.7594 C   0  0  0  0  0  0  0  0  0  0  0  0
  111.8290   72.5692   35.1508 C   0  0  0  0  0  0  0  0  0  0  0  0
  112.9263   70.4560   34.3517 C   0  0  0  0  0  0  0  0  0  0  0  0
  109.9194   67.1635   36.2807 C   0  0  0  0  0  0  0  0  0  0  0  0
  112.0154   71.6213   33.9681 C   0  0  0  0  0  0  0  0  0  0  0  0
  110.1944   68.9681   32.9310 N   0  0  0  0  0  0  0  0  0  0  0  0
  111.0527   70.5284   31.4372 O   0  0  0  0  0  0  0  0  0  0  0  0
  110.6428   66.0620   36.7974 O   0  0  0  0  0  0  0  0  0  0  0  0
  110.7263   71.0991   33.6263 O   0  0  0  0  0  0  0  0  0  0  0  0
  111.2725   65.8243   42.2586 F   0  0  0  0  0  0  0  0  0  0  0  0
  108.9351   67.0252   38.5684 H   0  0  0  0  0  0  0  0  0  0  0  0
  112.6986   64.9673   38.0449 H   0  0  0  0  0  0  0  0  0  0  0  0
  109.2205   66.9173   41.0446 H   0  0  0  0  0  0  0  0  0  0  0  0
  112.9843   64.8598   40.5211 H   0  0  0  0  0  0  0  0  0  0  0  0
  111.8353   66.7833   32.5444 H   0  0  0  0  0  0  0  0  0  0  0  0
  110.5025   65.7552   31.8785 H   0  0  0  0  0  0  0  0  0  0  0  0
  109.2262   65.9776   33.9238 H   0  0  0  0  0  0  0  0  0  0  0  0
  110.9039   65.4447   34.3366 H   0  0  0  0  0  0  0  0  0  0  0  0
  110.4869   68.1224   31.0288 H   0  0  0  0  0  0  0  0  0  0  0  0
  108.9752   67.6238   31.8803 H   0  0  0  0  0  0  0  0  0  0  0  0
  108.6583   68.5330   34.2936 H   0  0  0  0  0  0  0  0  0  0  0  0
  109.9880   69.5837   34.9206 H   0  0  0  0  0  0  0  0  0  0  0  0
  111.5227   67.7057   34.9722 H   0  0  0  0  0  0  0  0  0  0  0  0
  113.1934   73.2122   33.1038 H   0  0  0  0  0  0  0  0  0  0  0  0
  113.1829   71.6888   32.1521 H   0  0  0  0  0  0  0  0  0  0  0  0
  111.7393   72.7577   32.1521 H   0  0  0  0  0  0  0  0  0  0  0  0
  111.9392   72.0087   36.0908 H   0  0  0  0  0  0  0  0  0  0  0  0
  112.5880   73.3641   35.1067 H   0  0  0  0  0  0  0  0  0  0  0  0
  110.8255   73.0176   35.1067 H   0  0  0  0  0  0  0  0  0  0  0  0
  112.9845   70.3815   35.4476 H   0  0  0  0  0  0  0  0  0  0  0  0
  112.5174   69.5207   33.9418 H   0  0  0  0  0  0  0  0  0  0  0  0
  113.9327   70.6269   33.9418 H   0  0  0  0  0  0  0  0  0  0  0  0
  110.0552   68.0367   36.9357 H   0  0  0  0  0  0  0  0  0  0  0  0
  108.8478   66.9205   36.2306 H   0  0  0  0  0  0  0  0  0  0  0  0
  1  3  2  0
  1  5  1  0
  2  4  1  0
  2  5  2  0
  3  6  1  0
  4  6  2  0
  5 20  1  0
  6 22  1  0
  7 18  1  0
  7 19  2  0
  7 21  1  0
  8  9  1  0
  8 10  1  0
  9 12  1  0
 10 18  1  0
 11 12  1  0
 11 18  1  0
 12 16  1  0
 13 17  1  0
 14 17  1  0
 15 17  1  0
 16 20  1  0
 17 21  1  0
  1 23  1  0
  2 24  1  0
  3 25  1  0
  4 26  1  0
  8 27  1  0
  8 28  1  0
  9 29  1  0
  9 30  1  0
 10 31  1  0
 10 32  1  0
 11 33  1  0
 11 34  1  0
 12 35  1  1
 13 36  1  0
 13 37  1  0
 13 38  1  0
 14 39  1  0
 14 40  1  0
 14 41  1  0
 15 42  1  0
 15 43  1  0
 15 44  1  0
 16 45  1  0
 16 46  1  0
M  END
>  <Name>  (270) 
CHEMBL3676402

>  <Comment>  (270) 
 Schrodinger Suite 2021-4.

>  <s_m_entry_id>  (270) 
1443

>  <s_m_Source_Path>  (270) 
C:\Users\vinicius\Desktop

>  <s_m_Source_File>  (270) 
Ligands_Saureus_failomega.smi

>  <i_m_Source_File_Index>  (270) 
10

>  <r_lp_tautomer_probability>  (270) 
1

>  <r_epik_Ionization_Penalty>  (270) 
0

>  <r_epik_State_Penalty>  (270) 
0

>  <i_epik_Tot_Q>  (270) 
0

>  <i_f3d_flags>  (270) 
0

>  <s_m_job_name>  (270) 
Saureus_fail

>  <class_value>  (270) 
0

>  <FRED Chemgauss4 score>  (270) 
-12.451982

>  <Set>  (270) 
test

>  <HBA count>  (270) 
3

>  <HBD count>  (270) 
0

>  <ExactMolWt>  (270) 
309.1740218480007

>  <NumRotatableBounds>  (270) 
3

>  <FractionCsp3>  (270) 
0.5882352941176471

>  <TPSA>  (270) 
38.77

>  <LogP_WildmanCrippen>  (270) 
3.851600000000003

>  <General_Cluster>  (270) 
2

>  <Biological_Cluster>  (270) 
2

>  <Physicochemical_Cluster>  (270) 
2

>  <Structural_Cluster>  (270) 
3

$$$$
CHEMBL565647
     RDKit          3D

 52 55  0  0  0  0  0  0  0  0999 V2000
  111.7711   72.6798   35.3451 C   0  0  0  0  0  0  0  0  0  0  0  0
  112.0331   72.0442   36.5615 C   0  0  0  0  0  0  0  0  0  0  0  0
  111.1535   71.9948   34.2896 C   0  0  0  0  0  0  0  0  0  0  0  0
  111.6890   70.7051   36.7688 C   0  0  0  0  0  0  0  0  0  0  0  0
  109.9233   66.4387   39.1596 C   0  0  0  0  0  0  0  0  0  0  0  0
  112.1988   66.3207   39.7740 C   0  0  0  0  0  0  0  0  0  0  0  0
  110.7987   70.6473   34.4762 C   0  0  0  0  0  0  0  0  0  0  0  0
  111.2462   66.2673   38.7819 C   0  0  0  0  0  0  0  0  0  0  0  0
  109.5799   66.6581   40.5047 C   0  0  0  0  0  0  0  0  0  0  0  0
  110.1809   69.6408   33.6880 C   0  0  0  0  0  0  0  0  0  0  0  0
  111.0764   70.0505   35.7018 C   0  0  0  0  0  0  0  0  0  0  0  0
  110.1235   68.5134   34.4742 C   0  0  0  0  0  0  0  0  0  0  0  0
  110.6133   66.6561   41.4580 C   0  0  0  0  0  0  0  0  0  0  0  0
  111.6127   66.0506   37.3948 C   0  0  0  0  0  0  0  0  0  0  0  0
  110.7768   65.6164   36.4218 C   0  0  0  0  0  0  0  0  0  0  0  0
  111.2837   65.4006   35.0345 C   0  0  0  0  0  0  0  0  0  0  0  0
  108.1201   66.8792   40.8357 C   0  0  0  0  0  0  0  0  0  0  0  0
  109.1356   66.4815   43.4598 C   0  0  0  0  0  0  0  0  0  0  0  0
  108.0553   67.5256   43.1906 C   0  0  0  0  0  0  0  0  0  0  0  0
  109.6954   69.7742   32.3012 C   0  0  0  0  0  0  0  0  0  0  0  0
  111.0944   65.9857   32.6474 C   0  0  0  0  0  0  0  0  0  0  0  0
  109.5979   67.1255   34.2464 C   0  0  0  0  0  0  0  0  0  0  0  0
  111.9139   66.5113   41.0805 N   0  0  0  0  0  0  0  0  0  0  0  0
  110.3920   66.8056   42.8185 N   0  0  0  0  0  0  0  0  0  0  0  0
  107.9129   67.9554   41.8008 N   0  0  0  0  0  0  0  0  0  0  0  0
  110.6752   66.1610   34.0319 N   0  0  0  0  0  0  0  0  0  0  0  0
  112.1713   64.5715   34.8295 O   0  0  0  0  0  0  0  0  0  0  0  0
  110.6643   68.7515   35.6976 O   0  0  0  0  0  0  0  0  0  0  0  0
  112.0540   73.7346   35.2137 H   0  0  0  0  0  0  0  0  0  0  0  0
  112.5193   72.6080   37.3713 H   0  0  0  0  0  0  0  0  0  0  0  0
  110.9505   72.5014   33.3345 H   0  0  0  0  0  0  0  0  0  0  0  0
  111.8909   70.1957   37.7226 H   0  0  0  0  0  0  0  0  0  0  0  0
  109.1320   66.4025   38.3964 H   0  0  0  0  0  0  0  0  0  0  0  0
  113.2537   66.2012   39.4861 H   0  0  0  0  0  0  0  0  0  0  0  0
  112.6552   66.2559   37.1102 H   0  0  0  0  0  0  0  0  0  0  0  0
  109.7195   65.4219   36.6549 H   0  0  0  0  0  0  0  0  0  0  0  0
  107.5843   67.1311   39.9087 H   0  0  0  0  0  0  0  0  0  0  0  0
  107.7402   65.9517   41.2890 H   0  0  0  0  0  0  0  0  0  0  0  0
  109.3003   66.4162   44.5454 H   0  0  0  0  0  0  0  0  0  0  0  0
  108.7860   65.5244   43.0453 H   0  0  0  0  0  0  0  0  0  0  0  0
  107.0918   67.1041   43.5131 H   0  0  0  0  0  0  0  0  0  0  0  0
  108.3632   68.4222   43.7486 H   0  0  0  0  0  0  0  0  0  0  0  0
  108.6347   70.0656   32.3105 H   0  0  0  0  0  0  0  0  0  0  0  0
  110.2827   70.5443   31.7796 H   0  0  0  0  0  0  0  0  0  0  0  0
  109.8068   68.8122   31.7796 H   0  0  0  0  0  0  0  0  0  0  0  0
  112.1090   65.5614   32.6224 H   0  0  0  0  0  0  0  0  0  0  0  0
  110.3988   65.3031   32.1373 H   0  0  0  0  0  0  0  0  0  0  0  0
  111.0918   66.9603   32.1373 H   0  0  0  0  0  0  0  0  0  0  0  0
  109.0152   66.8173   35.1270 H   0  0  0  0  0  0  0  0  0  0  0  0
  108.9721   67.1431   33.3419 H   0  0  0  0  0  0  0  0  0  0  0  0
  111.1605   67.1655   43.4023 H   0  0  0  0  0  0  0  0  0  0  0  0
  108.6037   68.6968   41.6161 H   0  0  0  0  0  0  0  0  0  0  0  0
  1  2  2  0
  1  3  1  0
  2  4  1  0
  3  7  2  0
  4 11  2  0
  5  8  2  0
  5  9  1  0
  6  8  1  0
  6 23  2  0
  7 10  1  0
  7 11  1  0
  8 14  1  0
  9 13  2  0
  9 17  1  0
 10 12  2  0
 10 20  1  0
 11 28  1  0
 12 22  1  0
 12 28  1  0
 13 23  1  0
 13 24  1  0
 14 15  2  0
 15 16  1  0
 16 26  1  0
 16 27  2  0
 17 25  1  0
 18 19  1  0
 18 24  1  0
 19 25  1  0
 21 26  1  0
 22 26  1  0
  1 29  1  0
  2 30  1  0
  3 31  1  0
  4 32  1  0
  5 33  1  0
  6 34  1  0
 14 35  1  0
 15 36  1  0
 17 37  1  0
 17 38  1  0
 18 39  1  0
 18 40  1  0
 19 41  1  0
 19 42  1  0
 20 43  1  0
 20 44  1  0
 20 45  1  0
 21 46  1  0
 21 47  1  0
 21 48  1  0
 22 49  1  0
 22 50  1  0
 24 51  1  0
 25 52  1  0
M  END
>  <Name>  (271) 
CHEMBL565647

>  <Comment>  (271) 
 Schrodinger Suite 2021-4.

>  <s_m_entry_id>  (271) 
1351

>  <class_value>  (271) 
1

>  <s_m_Source_Path>  (271) 
C:\Users\vinicius\Desktop

>  <s_m_Source_File>  (271) 
Ligands_Saureus_o.sdf

>  <i_m_Source_File_Index>  (271) 
206

>  <r_epik_Ionization_Penalty>  (271) 
1.2865

>  <r_epik_State_Penalty>  (271) 
1.2144

>  <i_epik_Tot_Q>  (271) 
0

>  <i_f3d_flags>  (271) 
0

>  <s_m_job_name>  (271) 
Saureus_o

>  <FRED Chemgauss4 score>  (271) 
-17.655434

>  <Set>  (271) 
test

>  <HBA count>  (271) 
5

>  <HBD count>  (271) 
2

>  <ExactMolWt>  (271) 
376.1899260080007

>  <NumRotatableBounds>  (271) 
6

>  <FractionCsp3>  (271) 
0.2727272727272727

>  <TPSA>  (271) 
70.4

>  <LogP_WildmanCrippen>  (271) 
3.323120000000002

>  <General_Cluster>  (271) 
1

>  <Biological_Cluster>  (271) 
1

>  <Physicochemical_Cluster>  (271) 
1

>  <Structural_Cluster>  (271) 
2

$$$$
CHEMBL3676408
     RDKit          3D

 50 52  0  0  0  0  0  0  0  0999 V2000
  111.2908   69.3716   36.1946 C   0  0  0  0  0  0  0  0  0  0  0  0
  110.5366   68.2790   34.2250 C   0  0  0  0  0  0  0  0  0  0  0  0
  110.9395   68.1941   35.5459 C   0  0  0  0  0  0  0  0  0  0  0  0
  111.2486   70.5843   35.5052 C   0  0  0  0  0  0  0  0  0  0  0  0
  110.8351   70.5664   34.1736 C   0  0  0  0  0  0  0  0  0  0  0  0
  111.2399   72.9880   33.9351 C   0  0  0  0  0  0  0  0  0  0  0  0
  110.9794   66.9177   36.2360 C   0  0  0  0  0  0  0  0  0  0  0  0
  110.9662   66.7425   37.5785 C   0  0  0  0  0  0  0  0  0  0  0  0
  111.0181   65.4231   38.2343 C   0  0  0  0  0  0  0  0  0  0  0  0
  111.5267   71.8869   36.1921 C   0  0  0  0  0  0  0  0  0  0  0  0
  112.0612   72.9137   35.2062 C   0  0  0  0  0  0  0  0  0  0  0  0
  109.6631   66.3638   40.1828 C   0  0  0  0  0  0  0  0  0  0  0  0
  110.1368   64.2860   40.3940 C   0  0  0  0  0  0  0  0  0  0  0  0
  109.6272   65.3721   41.3547 C   0  0  0  0  0  0  0  0  0  0  0  0
  105.6979   60.9791   45.7524 C   0  0  0  0  0  0  0  0  0  0  0  0
  105.6727   62.0234   44.6476 C   0  0  0  0  0  0  0  0  0  0  0  0
  107.0590   62.6217   44.4107 C   0  0  0  0  0  0  0  0  0  0  0  0
  107.0362   63.6452   43.2776 C   0  0  0  0  0  0  0  0  0  0  0  0
  108.4213   64.2152   43.0071 C   0  0  0  0  0  0  0  0  0  0  0  0
  110.4685   69.4346   33.5269 N   0  0  0  0  0  0  0  0  0  0  0  0
  110.7611   71.7810   33.4653 N   0  0  0  0  0  0  0  0  0  0  0  0
  110.3840   65.3484   39.4408 N   0  0  0  0  0  0  0  0  0  0  0  0
  111.1003   74.0481   33.3253 O   0  0  0  0  0  0  0  0  0  0  0  0
  111.6049   64.4910   37.6906 O   0  0  0  0  0  0  0  0  0  0  0  0
  108.3343   65.1422   41.9414 O   0  0  0  0  0  0  0  0  0  0  0  0
  111.6016   69.3480   37.2495 H   0  0  0  0  0  0  0  0  0  0  0  0
  110.2542   67.3484   33.7110 H   0  0  0  0  0  0  0  0  0  0  0  0
  111.0244   66.0123   35.6129 H   0  0  0  0  0  0  0  0  0  0  0  0
  110.9137   67.6366   38.2171 H   0  0  0  0  0  0  0  0  0  0  0  0
  110.5951   72.2657   36.6378 H   0  0  0  0  0  0  0  0  0  0  0  0
  112.2839   71.7196   36.9722 H   0  0  0  0  0  0  0  0  0  0  0  0
  113.0942   72.6433   34.9422 H   0  0  0  0  0  0  0  0  0  0  0  0
  112.0097   73.8990   35.6926 H   0  0  0  0  0  0  0  0  0  0  0  0
  108.6774   66.6232   39.7691 H   0  0  0  0  0  0  0  0  0  0  0  0
  110.0518   67.3864   40.2977 H   0  0  0  0  0  0  0  0  0  0  0  0
  111.0377   63.7553   40.7356 H   0  0  0  0  0  0  0  0  0  0  0  0
  109.5308   63.4043   40.1384 H   0  0  0  0  0  0  0  0  0  0  0  0
  110.1509   65.5846   42.2984 H   0  0  0  0  0  0  0  0  0  0  0  0
  105.6858   61.4806   46.7313 H   0  0  0  0  0  0  0  0  0  0  0  0
  104.8152   60.3289   45.6626 H   0  0  0  0  0  0  0  0  0  0  0  0
  106.6110   60.3722   45.6626 H   0  0  0  0  0  0  0  0  0  0  0  0
  105.3234   61.5514   43.7175 H   0  0  0  0  0  0  0  0  0  0  0  0
  104.9948   62.8337   44.9540 H   0  0  0  0  0  0  0  0  0  0  0  0
  107.3982   63.1159   45.3330 H   0  0  0  0  0  0  0  0  0  0  0  0
  107.7444   61.8085   44.1298 H   0  0  0  0  0  0  0  0  0  0  0  0
  106.6666   63.1573   42.3636 H   0  0  0  0  0  0  0  0  0  0  0  0
  106.3765   64.4733   43.5762 H   0  0  0  0  0  0  0  0  0  0  0  0
  108.7944   64.7228   43.9088 H   0  0  0  0  0  0  0  0  0  0  0  0
  109.1133   63.4030   42.7396 H   0  0  0  0  0  0  0  0  0  0  0  0
  110.3203   71.7684   32.5345 H   0  0  0  0  0  0  0  0  0  0  0  0
  1  3  2  0
  1  4  1  0
  2  3  1  0
  2 20  2  0
  3  7  1  0
  4  5  2  0
  4 10  1  0
  5 20  1  0
  5 21  1  0
  6 11  1  0
  6 21  1  0
  6 23  2  0
  7  8  2  0
  8  9  1  0
  9 22  1  0
  9 24  2  0
 10 11  1  0
 12 14  1  0
 12 22  1  0
 13 14  1  0
 13 22  1  0
 14 25  1  0
 15 16  1  0
 16 17  1  0
 17 18  1  0
 18 19  1  0
 19 25  1  0
  1 26  1  0
  2 27  1  0
  7 28  1  0
  8 29  1  0
 10 30  1  0
 10 31  1  0
 11 32  1  0
 11 33  1  0
 12 34  1  0
 12 35  1  0
 13 36  1  0
 13 37  1  0
 14 38  1  0
 15 39  1  0
 15 40  1  0
 15 41  1  0
 16 42  1  0
 16 43  1  0
 17 44  1  0
 17 45  1  0
 18 46  1  0
 18 47  1  0
 19 48  1  0
 19 49  1  0
 21 50  1  0
M  END
>  <Name>  (272) 
CHEMBL3676408

>  <Comment>  (272) 
 Schrodinger Suite 2021-4.

>  <s_m_entry_id>  (272) 
1084

>  <class_value>  (272) 
1

>  <s_m_Source_Path>  (272) 
C:\Users\vinicius\Desktop

>  <s_m_Source_File>  (272) 
Ligands_Saureus_o.sdf

>  <i_m_Source_File_Index>  (272) 
10

>  <r_lp_tautomer_probability>  (272) 
1

>  <r_epik_Ionization_Penalty>  (272) 
0.0002

>  <r_epik_State_Penalty>  (272) 
0

>  <i_epik_Tot_Q>  (272) 
0

>  <i_f3d_flags>  (272) 
0

>  <s_m_job_name>  (272) 
Saureus_o

>  <FRED Chemgauss4 score>  (272) 
-11.635057

>  <Set>  (272) 
test

>  <HBA count>  (272) 
4

>  <HBD count>  (272) 
1

>  <ExactMolWt>  (272) 
343.18959166000064

>  <NumRotatableBounds>  (272) 
8

>  <FractionCsp3>  (272) 
0.5263157894736842

>  <TPSA>  (272) 
71.53

>  <LogP_WildmanCrippen>  (272) 
2.3971

>  <General_Cluster>  (272) 
1

>  <Biological_Cluster>  (272) 
1

>  <Physicochemical_Cluster>  (272) 
4

>  <Structural_Cluster>  (272) 
2

$$$$
CHEMBL566443
     RDKit          3D

 52 55  0  0  0  0  0  0  0  0999 V2000
  112.4511   72.7478   35.2447 C   0  0  0  0  0  0  0  0  0  0  0  0
  112.0382   72.9332   33.9268 C   0  0  0  0  0  0  0  0  0  0  0  0
  112.1680   71.5569   35.9233 C   0  0  0  0  0  0  0  0  0  0  0  0
  111.3312   71.9379   33.2462 C   0  0  0  0  0  0  0  0  0  0  0  0
  111.0071   69.2399   35.6256 C   0  0  0  0  0  0  0  0  0  0  0  0
  109.8431   66.0200   39.4937 C   0  0  0  0  0  0  0  0  0  0  0  0
  112.1264   66.1237   40.0590 C   0  0  0  0  0  0  0  0  0  0  0  0
  111.4564   70.5391   35.2576 C   0  0  0  0  0  0  0  0  0  0  0  0
  111.1691   65.9335   39.0938 C   0  0  0  0  0  0  0  0  0  0  0  0
  111.0552   70.7526   33.9371 C   0  0  0  0  0  0  0  0  0  0  0  0
  109.4784   66.2833   40.8313 C   0  0  0  0  0  0  0  0  0  0  0  0
  110.3539   68.7002   34.5417 C   0  0  0  0  0  0  0  0  0  0  0  0
  110.5294   66.4208   41.7419 C   0  0  0  0  0  0  0  0  0  0  0  0
  109.3420   66.5457   43.9985 C   0  0  0  0  0  0  0  0  0  0  0  0
  111.5280   65.6707   37.7130 C   0  0  0  0  0  0  0  0  0  0  0  0
  110.7197   65.8606   36.6429 C   0  0  0  0  0  0  0  0  0  0  0  0
  111.1956   65.5204   35.2696 C   0  0  0  0  0  0  0  0  0  0  0  0
  107.9883   66.1517   43.4807 C   0  0  0  0  0  0  0  0  0  0  0  0
  107.5838   66.9899   42.2938 C   0  0  0  0  0  0  0  0  0  0  0  0
  109.8078   69.4293   32.2145 C   0  0  0  0  0  0  0  0  0  0  0  0
  111.0552   65.9928   32.8543 C   0  0  0  0  0  0  0  0  0  0  0  0
  109.6894   67.3625   34.3885 C   0  0  0  0  0  0  0  0  0  0  0  0
  111.8368   66.3654   41.3529 N   0  0  0  0  0  0  0  0  0  0  0  0
  110.3883   69.6198   33.5281 N   0  0  0  0  0  0  0  0  0  0  0  0
  108.1316   66.4271   41.0881 N   0  0  0  0  0  0  0  0  0  0  0  0
  110.4044   66.6126   43.1368 N   0  0  0  0  0  0  0  0  0  0  0  0
  110.6624   66.2837   34.2271 N   0  0  0  0  0  0  0  0  0  0  0  0
  109.4944   66.7498   45.2078 O   0  0  0  0  0  0  0  0  0  0  0  0
  111.9937   64.5958   35.1102 O   0  0  0  0  0  0  0  0  0  0  0  0
  113.0062   73.5469   35.7578 H   0  0  0  0  0  0  0  0  0  0  0  0
  112.2723   73.8778   33.4140 H   0  0  0  0  0  0  0  0  0  0  0  0
  112.4970   71.4172   36.9636 H   0  0  0  0  0  0  0  0  0  0  0  0
  111.0038   72.0810   32.2058 H   0  0  0  0  0  0  0  0  0  0  0  0
  111.1554   68.7544   36.6014 H   0  0  0  0  0  0  0  0  0  0  0  0
  109.0507   65.8788   38.7439 H   0  0  0  0  0  0  0  0  0  0  0  0
  113.1842   66.0764   39.7611 H   0  0  0  0  0  0  0  0  0  0  0  0
  112.5399   65.2855   37.5191 H   0  0  0  0  0  0  0  0  0  0  0  0
  109.7078   66.2674   36.7865 H   0  0  0  0  0  0  0  0  0  0  0  0
  108.0152   65.0943   43.1787 H   0  0  0  0  0  0  0  0  0  0  0  0
  107.2526   66.3119   44.2826 H   0  0  0  0  0  0  0  0  0  0  0  0
  106.4865   67.0126   42.2201 H   0  0  0  0  0  0  0  0  0  0  0  0
  107.9686   68.0121   42.4240 H   0  0  0  0  0  0  0  0  0  0  0  0
  108.7674   69.0879   32.3194 H   0  0  0  0  0  0  0  0  0  0  0  0
  109.8276   70.3811   31.6634 H   0  0  0  0  0  0  0  0  0  0  0  0
  110.3877   68.6743   31.6634 H   0  0  0  0  0  0  0  0  0  0  0  0
  111.9392   65.3381   32.8567 H   0  0  0  0  0  0  0  0  0  0  0  0
  110.2269   65.4886   32.3349 H   0  0  0  0  0  0  0  0  0  0  0  0
  111.2960   66.9321   32.3349 H   0  0  0  0  0  0  0  0  0  0  0  0
  109.0826   67.1626   35.2840 H   0  0  0  0  0  0  0  0  0  0  0  0
  109.0644   67.3949   33.4839 H   0  0  0  0  0  0  0  0  0  0  0  0
  107.4703   66.1090   40.3654 H   0  0  0  0  0  0  0  0  0  0  0  0
  111.2932   66.8512   43.5993 H   0  0  0  0  0  0  0  0  0  0  0  0
  1  2  2  0
  1  3  1  0
  2  4  1  0
  3  8  2  0
  4 10  2  0
  5  8  1  0
  5 12  2  0
  6  9  2  0
  6 11  1  0
  7  9  1  0
  7 23  2  0
  8 10  1  0
  9 15  1  0
 10 24  1  0
 11 13  2  0
 11 25  1  0
 12 22  1  0
 12 24  1  0
 13 23  1  0
 13 26  1  0
 14 18  1  0
 14 26  1  0
 14 28  2  0
 15 16  2  0
 16 17  1  0
 17 27  1  0
 17 29  2  0
 18 19  1  0
 19 25  1  0
 20 24  1  0
 21 27  1  0
 22 27  1  0
  1 30  1  0
  2 31  1  0
  3 32  1  0
  4 33  1  0
  5 34  1  0
  6 35  1  0
  7 36  1  0
 15 37  1  0
 16 38  1  0
 18 39  1  0
 18 40  1  0
 19 41  1  0
 19 42  1  0
 20 43  1  0
 20 44  1  0
 20 45  1  0
 21 46  1  0
 21 47  1  0
 21 48  1  0
 22 49  1  0
 22 50  1  0
 25 51  1  0
 26 52  1  0
M  END
>  <Name>  (273) 
CHEMBL566443

>  <Comment>  (273) 
 Schrodinger Suite 2021-4.

>  <s_m_entry_id>  (273) 
1358

>  <class_value>  (273) 
1

>  <s_m_Source_Path>  (273) 
C:\Users\vinicius\Desktop

>  <s_m_Source_File>  (273) 
Ligands_Saureus_o.sdf

>  <i_m_Source_File_Index>  (273) 
210

>  <r_lp_tautomer_probability>  (273) 
1

>  <r_epik_Ionization_Penalty>  (273) 
0.0015

>  <r_epik_State_Penalty>  (273) 
0

>  <i_epik_Tot_Q>  (273) 
0

>  <i_f3d_flags>  (273) 
0

>  <s_m_job_name>  (273) 
Saureus_o

>  <FRED Chemgauss4 score>  (273) 
-16.716055

>  <Set>  (273) 
test

>  <HBA count>  (273) 
5

>  <HBD count>  (273) 
2

>  <ExactMolWt>  (273) 
389.1851749760007

>  <NumRotatableBounds>  (273) 
6

>  <FractionCsp3>  (273) 
0.22727272727272727

>  <TPSA>  (273) 
79.26

>  <LogP_WildmanCrippen>  (273) 
2.999200000000001

>  <General_Cluster>  (273) 
1

>  <Biological_Cluster>  (273) 
1

>  <Physicochemical_Cluster>  (273) 
1

>  <Structural_Cluster>  (273) 
2

$$$$
